@<TRIPOS>MOLECULE
IMPHY003999
 16 15 0 0 0
SMALL
GASTEIGER

@<TRIPOS>ATOM
      1 O           4.2690   -1.2500    0.0000 O.3     1  UNL1       -0.3780
      2 O           5.1350    1.2500    0.0000 O.3     1  UNL1       -0.3780
      3 O           2.5369   -0.2500    0.0000 O.3     1  UNL1       -0.4788
      4 O           6.8671    0.2500    0.0000 O.3     1  UNL1       -0.4788
      5 O           3.4030    1.2500    0.0000 O.2     1  UNL1       -0.2480
      6 O           6.0010   -1.2500    0.0000 O.2     1  UNL1       -0.2480
      7 C           4.2690   -0.2500    0.0000 C.3     1  UNL1        0.1878
      8 C           5.1350    0.2500    0.0000 C.3     1  UNL1        0.1878
      9 C           3.4030    0.2500    0.0000 C.2     1  UNL1        0.3368
     10 C           6.0010   -0.2500    0.0000 C.2     1  UNL1        0.3368
     11 H           4.8059   -0.5600    0.0000 H       1  UNL1        0.0743
     12 H           5.6720    0.5600    0.0000 H       1  UNL1        0.0743
     13 H           3.7320   -1.5600    0.0000 H       1  UNL1        0.2106
     14 H           5.6720    1.5600    0.0000 H       1  UNL1        0.2106
     15 H           2.0000    0.0600    0.0000 H       1  UNL1        0.2951
     16 H           7.4040   -0.0600    0.0000 H       1  UNL1        0.2951
@<TRIPOS>BOND
     1     7     1    1
     2     1    13    1
     3     8     2    1
     4     2    14    1
     5     3     9    1
     6     3    15    1
     7     4    10    1
     8     4    16    1
     9     5     9    2
    10     6    10    2
    11     7     8    1
    12     7     9    1
    13     7    11    1
    14     8    10    1
    15     8    12    1
