@<TRIPOS>MOLECULE
IMPHY017663
 45 47 0 0 0
SMALL
GASTEIGER

@<TRIPOS>ATOM
      1 O           4.6342   -2.2064    0.0000 O.3     1  UNL1       -0.4604
      2 O           2.9022   -2.2056    0.0000 O.2     1  UNL1       -0.2512
      3 C           3.1197    2.4566    0.0000 C.3     1  UNL1       -0.0202
      4 C           2.9343    3.2297    0.0000 C.3     1  UNL1       -0.0312
      5 C           2.5458    2.0365    0.0000 C.3     1  UNL1       -0.0312
      6 C           3.7704    2.2940    0.0000 C.3     1  UNL1       -0.0230
      7 C           4.6301    2.6193    0.0000 C.3     1  UNL1       -0.0346
      8 C           3.9285    3.3630    0.0000 C.3     1  UNL1       -0.0461
      9 C           3.9285    1.6581    0.0000 C.3     1  UNL1       -0.0461
     10 C           3.3668    3.5797    0.0000 C.3     1  UNL1       -0.0585
     11 C           4.6362    1.7936    0.0000 C.3     1  UNL1       -0.0434
     12 C           4.4788    3.1998    0.0000 C.3     1  UNL1       -0.0588
     13 C           4.6357    0.7936    0.0000 C.3     1  UNL1       -0.0339
     14 C           5.5015    0.2931    0.0000 C.2     1  UNL1       -0.0818
     15 C           5.5010   -0.7069    0.0000 C.2     1  UNL1       -0.0396
     16 C           4.6347   -1.2064    0.0000 C.3     1  UNL1        0.1133
     17 C           6.3668   -1.2073    0.0000 C.3     1  UNL1       -0.0406
     18 C           3.7680   -2.7060    0.0000 C.2     1  UNL1        0.3042
     19 C           3.7675   -3.7060    0.0000 C.3     1  UNL1        0.0332
     20 H           2.3902    3.8827    0.0000 H       1  UNL1        0.0309
     21 H           1.7975    1.6332    0.0000 H       1  UNL1        0.0309
     22 H           5.2488    2.6582    0.0000 H       1  UNL1        0.0306
     23 H           4.4575    3.6863    0.0000 H       1  UNL1        0.0271
     24 H           3.7212    3.9473    0.0000 H       1  UNL1        0.0271
     25 H           3.6938    1.0843    0.0000 H       1  UNL1        0.0271
     26 H           4.4698    1.3558    0.0000 H       1  UNL1        0.0271
     27 H           3.9724    3.4464    0.0000 H       1  UNL1        0.0235
     28 H           3.5001    4.1852    0.0000 H       1  UNL1        0.0235
     29 H           2.7613    3.7129    0.0000 H       1  UNL1        0.0235
     30 H           5.2467    1.6856    0.0000 H       1  UNL1        0.0274
     31 H           4.8485    2.3761    0.0000 H       1  UNL1        0.0274
     32 H           4.9672    2.8179    0.0000 H       1  UNL1        0.0235
     33 H           4.8608    3.6882    0.0000 H       1  UNL1        0.0235
     34 H           3.9904    3.5818    0.0000 H       1  UNL1        0.0235
     35 H           4.0252    0.9015    0.0000 H       1  UNL1        0.0308
     36 H           4.4233    0.2110    0.0000 H       1  UNL1        0.0308
     37 H           6.0385    0.6029    0.0000 H       1  UNL1        0.0573
     38 H           4.4229   -0.6237    0.0000 H       1  UNL1        0.0745
     39 H           4.0241   -1.3138    0.0000 H       1  UNL1        0.0745
     40 H           6.0565   -1.7441    0.0000 H       1  UNL1        0.0275
     41 H           6.9036   -1.5175    0.0000 H       1  UNL1        0.0275
     42 H           6.6770   -0.6705    0.0000 H       1  UNL1        0.0275
     43 H           3.1475   -3.7057    0.0000 H       1  UNL1        0.0342
     44 H           3.7672   -4.3260    0.0000 H       1  UNL1        0.0342
     45 H           4.3875   -3.7063    0.0000 H       1  UNL1        0.0342
@<TRIPOS>BOND
     1     1    16    1
     2     1    18    1
     3     2    18    2
     4     3     4    1
     5     3     5    1
     6     3     6    1
     7     3    10    1
     8     4     5    1
     9     4     8    1
    10     4    20    1
    11     5     9    1
    12     5    21    1
    13     6     7    1
    14     6    11    1
    15     6    12    1
    16     7     8    1
    17     7     9    1
    18     7    22    1
    19     8    23    1
    20     8    24    1
    21     9    25    1
    22     9    26    1
    23    10    27    1
    24    10    28    1
    25    10    29    1
    26    11    13    1
    27    11    30    1
    28    11    31    1
    29    12    32    1
    30    12    33    1
    31    12    34    1
    32    13    14    1
    33    13    35    1
    34    13    36    1
    35    14    15    2
    36    14    37    1
    37    15    16    1
    38    15    17    1
    39    16    38    1
    40    16    39    1
    41    17    40    1
    42    17    41    1
    43    17    42    1
    44    18    19    1
    45    19    43    1
    46    19    44    1
    47    19    45    1
