@<TRIPOS>MOLECULE
IMPHY014503
 46 45 0 0 0
SMALL
GASTEIGER

@<TRIPOS>ATOM
      1 O           5.4641    0.7500    0.0000 O.3     1  UNL1       -0.4638
      2 O           4.5981    2.2500    0.0000 O.2     1  UNL1       -0.2505
      3 C           7.1962    0.7500    0.0000 C.3     1  UNL1        0.0175
      4 C           7.1962   -0.2500    0.0000 C.3     1  UNL1       -0.0249
      5 C           6.3301    1.2500    0.0000 C.3     1  UNL1        0.0992
      6 C           8.0622    1.2500    0.0000 C.2     1  UNL1       -0.0703
      7 C           3.7320    0.7500    0.0000 C.3     1  UNL1        0.0534
      8 C           8.9282    0.7500    0.0000 C.3     1  UNL1       -0.0345
      9 C           6.3301   -0.7500    0.0000 C.2     1  UNL1       -0.0846
     10 C           2.8660    1.2500    0.0000 C.3     1  UNL1       -0.0432
     11 C           4.5981    1.2500    0.0000 C.2     1  UNL1        0.3099
     12 C           3.7320   -0.2500    0.0000 C.3     1  UNL1       -0.0523
     13 C           8.0622    2.2500    0.0000 C.2     1  UNL1       -0.0991
     14 C           9.7942    1.2500    0.0000 C.3     1  UNL1       -0.0616
     15 C           6.3301   -1.7500    0.0000 C.2     1  UNL1       -0.0796
     16 C           2.0000    0.7500    0.0000 C.3     1  UNL1       -0.0645
     17 C           5.4641   -2.2500    0.0000 C.3     1  UNL1       -0.0440
     18 C           7.1962   -2.2500    0.0000 C.3     1  UNL1       -0.0440
     19 H           6.6592    0.4400    0.0000 H       1  UNL1        0.0382
     20 H           7.4082   -0.8326    0.0000 H       1  UNL1        0.0314
     21 H           7.8067   -0.1423    0.0000 H       1  UNL1        0.0314
     22 H           6.7287    1.7250    0.0000 H       1  UNL1        0.0703
     23 H           5.9316    1.7250    0.0000 H       1  UNL1        0.0703
     24 H           4.2690    0.4400    0.0000 H       1  UNL1        0.0410
     25 H           8.5297    0.2751    0.0000 H       1  UNL1        0.0307
     26 H           9.3267    0.2751    0.0000 H       1  UNL1        0.0307
     27 H           5.7932   -0.4400    0.0000 H       1  UNL1        0.0572
     28 H           3.2646    1.7250    0.0000 H       1  UNL1        0.0270
     29 H           2.4675    1.7250    0.0000 H       1  UNL1        0.0270
     30 H           3.1120   -0.2500    0.0000 H       1  UNL1        0.0238
     31 H           3.7320   -0.8700    0.0000 H       1  UNL1        0.0238
     32 H           4.3520   -0.2500    0.0000 H       1  UNL1        0.0238
     33 H           8.5991    2.5600    0.0000 H       1  UNL1        0.0535
     34 H           7.5252    2.5600    0.0000 H       1  UNL1        0.0535
     35 H          10.1042    0.7131    0.0000 H       1  UNL1        0.0233
     36 H          10.3312    1.5600    0.0000 H       1  UNL1        0.0233
     37 H           9.4842    1.7869    0.0000 H       1  UNL1        0.0233
     38 H           1.6900    1.2869    0.0000 H       1  UNL1        0.0230
     39 H           1.4631    0.4400    0.0000 H       1  UNL1        0.0230
     40 H           2.3100    0.2131    0.0000 H       1  UNL1        0.0230
     41 H           5.1541   -1.7131    0.0000 H       1  UNL1        0.0274
     42 H           4.9272   -2.5600    0.0000 H       1  UNL1        0.0274
     43 H           5.7741   -2.7869    0.0000 H       1  UNL1        0.0274
     44 H           6.8862   -2.7869    0.0000 H       1  UNL1        0.0274
     45 H           7.7331   -2.5600    0.0000 H       1  UNL1        0.0274
     46 H           7.5062   -1.7131    0.0000 H       1  UNL1        0.0274
@<TRIPOS>BOND
     1     1     5    1
     2     1    11    1
     3     2    11    2
     4     3     4    1
     5     3     5    1
     6     3     6    1
     7     3    19    1
     8     4     9    1
     9     4    20    1
    10     4    21    1
    11     5    22    1
    12     5    23    1
    13     6     8    1
    14     6    13    2
    15     7    10    1
    16     7    11    1
    17     7    12    1
    18     7    24    1
    19     8    14    1
    20     8    25    1
    21     8    26    1
    22     9    15    2
    23     9    27    1
    24    10    16    1
    25    10    28    1
    26    10    29    1
    27    12    30    1
    28    12    31    1
    29    12    32    1
    30    13    33    1
    31    13    34    1
    32    14    35    1
    33    14    36    1
    34    14    37    1
    35    15    17    1
    36    15    18    1
    37    16    38    1
    38    16    39    1
    39    16    40    1
    40    17    41    1
    41    17    42    1
    42    17    43    1
    43    18    44    1
    44    18    45    1
    45    18    46    1
