@<TRIPOS>MOLECULE
IMPHY017502
 39 40 0 0 0
SMALL
GASTEIGER

@<TRIPOS>ATOM
      1 C           4.5981    0.8722    0.0000 C.3     1  UNL1       -0.0045
      2 C           5.5443    1.1769    0.0000 C.3     1  UNL1       -0.0339
      3 C           5.5443   -0.4326    0.0000 C.3     1  UNL1       -0.0165
      4 C           6.1279    0.3722    0.0000 C.3     1  UNL1       -0.0429
      5 C           4.5981   -0.1278    0.0000 C.2     1  UNL1       -0.0595
      6 C           3.7320    1.3722    0.0000 C.3     1  UNL1       -0.0248
      7 C           5.8550   -1.3831    0.0000 C.3     1  UNL1       -0.0402
      8 C           4.5981    1.8722    0.0000 C.3     1  UNL1       -0.0553
      9 C           5.8550    2.1274    0.0000 C.3     1  UNL1       -0.0616
     10 C           3.7320   -0.6278    0.0000 C.2     1  UNL1       -0.0591
     11 C           2.8660    0.8722    0.0000 C.2     1  UNL1       -0.0803
     12 C           2.8660   -0.1278    0.0000 C.2     1  UNL1       -0.0543
     13 C           6.8335   -1.5893    0.0000 C.3     1  UNL1       -0.0621
     14 C           5.1871   -2.1274    0.0000 C.3     1  UNL1       -0.0621
     15 C           2.0000   -0.6278    0.0000 C.3     1  UNL1       -0.0400
     16 H           5.1068    1.6162    0.0000 H       1  UNL1        0.0307
     17 H           6.1568   -0.5288    0.0000 H       1  UNL1        0.0348
     18 H           6.5888   -0.0426    0.0000 H       1  UNL1        0.0274
     19 H           6.5888    0.7869    0.0000 H       1  UNL1        0.0274
     20 H           4.1306    1.8471    0.0000 H       1  UNL1        0.0316
     21 H           3.3335    1.8471    0.0000 H       1  UNL1        0.0316
     22 H           6.2690   -0.9216    0.0000 H       1  UNL1        0.0301
     23 H           5.2181    1.8722    0.0000 H       1  UNL1        0.0238
     24 H           4.5981    2.4922    0.0000 H       1  UNL1        0.0238
     25 H           3.9781    1.8722    0.0000 H       1  UNL1        0.0238
     26 H           6.4443    1.9348    0.0000 H       1  UNL1        0.0233
     27 H           6.0476    2.7167    0.0000 H       1  UNL1        0.0233
     28 H           5.2656    2.3200    0.0000 H       1  UNL1        0.0233
     29 H           3.7320   -1.2478    0.0000 H       1  UNL1        0.0620
     30 H           2.3291    1.1822    0.0000 H       1  UNL1        0.0575
     31 H           6.7056   -2.1960    0.0000 H       1  UNL1        0.0233
     32 H           7.4401   -1.7172    0.0000 H       1  UNL1        0.0233
     33 H           6.9613   -0.9826    0.0000 H       1  UNL1        0.0233
     34 H           4.7256   -1.7133    0.0000 H       1  UNL1        0.0233
     35 H           4.7730   -2.5889    0.0000 H       1  UNL1        0.0233
     36 H           5.6486   -2.5415    0.0000 H       1  UNL1        0.0233
     37 H           1.6900   -0.0909    0.0000 H       1  UNL1        0.0277
     38 H           1.4631   -0.9378    0.0000 H       1  UNL1        0.0277
     39 H           2.3100   -1.1648    0.0000 H       1  UNL1        0.0277
@<TRIPOS>BOND
     1     1     2    1
     2     1     5    1
     3     1     6    1
     4     1     8    1
     5     2     4    1
     6     2     9    1
     7     2    16    1
     8     3     4    1
     9     3     5    1
    10     3     7    1
    11     3    17    1
    12     4    18    1
    13     4    19    1
    14     5    10    2
    15     6    11    1
    16     6    20    1
    17     6    21    1
    18     7    13    1
    19     7    14    1
    20     7    22    1
    21     8    23    1
    22     8    24    1
    23     8    25    1
    24     9    26    1
    25     9    27    1
    26     9    28    1
    27    10    12    1
    28    10    29    1
    29    11    12    2
    30    11    30    1
    31    12    15    1
    32    13    31    1
    33    13    32    1
    34    13    33    1
    35    14    34    1
    36    14    35    1
    37    14    36    1
    38    15    37    1
    39    15    38    1
    40    15    39    1
