@<TRIPOS>MOLECULE
IMPHY009399
 48 52 0 0 0
SMALL
GASTEIGER

@<TRIPOS>ATOM
      1 O           8.3941    2.0032    0.0000 O.3     1  UNL1       -0.4483
      2 O           6.7375    2.6445    0.0000 O.2     1  UNL1       -0.2262
      3 O           2.8660    0.4284    0.0000 O.3     1  UNL1       -0.4913
      4 O           4.5981    3.4284    0.0000 O.3     1  UNL1       -0.4913
      5 O           2.8660    2.4284    0.0000 O.3     1  UNL1       -0.5009
      6 N           7.1962    0.9284    0.0000 N.am    1  UNL1       -0.2483
      7 N           5.5931   -1.2387    0.0000 N.ar    1  UNL1       -0.3559
      8 C           8.0622    0.4284    0.0000 C.3     1  UNL1        0.0683
      9 C           6.3301    0.4284    0.0000 C.3     1  UNL1        0.0954
     10 C           8.0622   -0.5716    0.0000 C.3     1  UNL1       -0.0033
     11 C           6.3301   -0.5716    0.0000 C.ar    1  UNL1        0.0457
     12 C           7.1962   -1.0716    0.0000 C.ar    1  UNL1       -0.0151
     13 C           8.7992    1.0954    0.0000 C.3     1  UNL1        0.1130
     14 C           6.9870   -2.0434    0.0000 C.ar    1  UNL1        0.0032
     15 C           5.4641    0.9284    0.0000 C.ar    1  UNL1       -0.0140
     16 C           7.4054    1.9002    0.0000 C.2     1  UNL1        0.4041
     17 C           5.9982   -2.1465    0.0000 C.ar    1  UNL1        0.0470
     18 C           7.6077   -2.8722    0.0000 C.ar    1  UNL1       -0.0523
     19 C           5.4641    1.9284    0.0000 C.ar    1  UNL1       -0.0107
     20 C           4.5981    0.4284    0.0000 C.ar    1  UNL1       -0.0107
     21 C           5.5617   -3.0855    0.0000 C.ar    1  UNL1       -0.0378
     22 C           7.1930   -3.8210    0.0000 C.ar    1  UNL1       -0.0611
     23 C           6.1631   -3.9284    0.0000 C.ar    1  UNL1       -0.0598
     24 C           3.7320    0.9284    0.0000 C.ar    1  UNL1        0.1653
     25 C           4.5981    2.4284    0.0000 C.ar    1  UNL1        0.1653
     26 C           3.7320    1.9284    0.0000 C.ar    1  UNL1        0.2010
     27 C           2.0000    0.9284    0.0000 C.3     1  UNL1        0.0790
     28 C           5.4641    3.9284    0.0000 C.3     1  UNL1        0.0790
     29 H           8.8391    0.0836    0.0000 H       1  UNL1        0.0539
     30 H           5.7932    0.1184    0.0000 H       1  UNL1        0.0617
     31 H           8.2742   -1.1542    0.0000 H       1  UNL1        0.0333
     32 H           8.6728   -0.4640    0.0000 H       1  UNL1        0.0333
     33 H           9.1646    0.5946    0.0000 H       1  UNL1        0.0717
     34 H           9.3357    1.4062    0.0000 H       1  UNL1        0.0717
     35 H           4.9864   -1.1109    0.0000 H       1  UNL1        0.1657
     36 H           8.2236   -2.8008    0.0000 H       1  UNL1        0.0624
     37 H           6.0010    2.2384    0.0000 H       1  UNL1        0.0659
     38 H           4.5981   -0.1916    0.0000 H       1  UNL1        0.0659
     39 H           4.9444   -3.1426    0.0000 H       1  UNL1        0.0638
     40 H           7.5590   -4.3215    0.0000 H       1  UNL1        0.0618
     41 H           5.9083   -4.4936    0.0000 H       1  UNL1        0.0618
     42 H           2.8660    3.0484    0.0000 H       1  UNL1        0.2924
     43 H           2.3100    1.4653    0.0000 H       1  UNL1        0.0660
     44 H           1.4631    1.2384    0.0000 H       1  UNL1        0.0660
     45 H           1.6900    0.3914    0.0000 H       1  UNL1        0.0660
     46 H           5.7741    3.3914    0.0000 H       1  UNL1        0.0660
     47 H           6.0010    4.2384    0.0000 H       1  UNL1        0.0660
     48 H           5.1541    4.4653    0.0000 H       1  UNL1        0.0660
@<TRIPOS>BOND
     1     1    13    1
     2     1    16    1
     3     2    16    2
     4     3    24    1
     5     3    27    1
     6     4    25    1
     7     4    28    1
     8     5    26    1
     9     5    42    1
    10     6     8    1
    11     6     9    1
    12     6    16   am
    13     7    11   ar
    14     7    17   ar
    15     7    35    1
    16     8    10    1
    17     8    13    1
    18     8    29    1
    19     9    11    1
    20     9    15    1
    21     9    30    1
    22    10    12    1
    23    10    31    1
    24    10    32    1
    25    11    12   ar
    26    12    14   ar
    27    13    33    1
    28    13    34    1
    29    14    17   ar
    30    14    18   ar
    31    15    19   ar
    32    15    20   ar
    33    17    21   ar
    34    18    22   ar
    35    18    36    1
    36    19    25   ar
    37    19    37    1
    38    20    24   ar
    39    20    38    1
    40    21    23   ar
    41    21    39    1
    42    22    23   ar
    43    22    40    1
    44    23    41    1
    45    24    26   ar
    46    25    26   ar
    47    27    43    1
    48    27    44    1
    49    27    45    1
    50    28    46    1
    51    28    47    1
    52    28    48    1
