@<TRIPOS>MOLECULE
IMPHY007329
 38 40 0 0 0
SMALL
GASTEIGER

@<TRIPOS>ATOM
      1 O           7.3424   -0.4453    0.0000 O.2     1  UNL1       -0.4590
      2 O           5.5301    0.7500    0.0000 O.3     1  UNL1       -0.4810
      3 O           3.7702   -0.2153    0.0000 O.2     1  UNL1       -0.4182
      4 O           5.5301   -3.2500    0.0000 O.3     1  UNL1       -0.4937
      5 O           2.0000   -0.2258    0.0000 O.2     1  UNL1       -0.2452
      6 C           6.3961   -1.7500    0.0000 C.ar    1  UNL1        0.0662
      7 C           6.3961   -0.7500    0.0000 C.ar    1  UNL1        0.1834
      8 C           4.6641   -1.7500    0.0000 C.ar    1  UNL1        0.0637
      9 C           5.5301   -0.2500    0.0000 C.ar    1  UNL1        0.2069
     10 C           4.6641   -0.7500    0.0000 C.ar    1  UNL1        0.1877
     11 C           5.5301   -2.2500    0.0000 C.ar    1  UNL1        0.1417
     12 C           7.3424   -2.0547    0.0000 C.ar    1  UNL1       -0.0125
     13 C           3.7702   -2.2847    0.0000 C.ar    1  UNL1       -0.0406
     14 C           7.9260   -1.2500    0.0000 C.ar    1  UNL1        0.0934
     15 C           6.3961    1.2500    0.0000 C.3     1  UNL1        0.1084
     16 C           2.8641   -1.7708    0.0000 C.ar    1  UNL1        0.0237
     17 C           2.8641   -0.7292    0.0000 C.ar    1  UNL1        0.3373
     18 C           6.3961    2.2500    0.0000 C.2     1  UNL1       -0.0484
     19 C           7.2622    2.7500    0.0000 C.2     1  UNL1       -0.0765
     20 C           6.3961   -3.7500    0.0000 C.3     1  UNL1        0.0788
     21 C           7.2622    3.7500    0.0000 C.3     1  UNL1       -0.0439
     22 C           8.1282    2.2500    0.0000 C.3     1  UNL1       -0.0439
     23 H           7.5350   -2.6440    0.0000 H       1  UNL1        0.0656
     24 H           3.7773   -2.9046    0.0000 H       1  UNL1        0.0628
     25 H           8.5460   -1.2500    0.0000 H       1  UNL1        0.1030
     26 H           6.6082    0.6674    0.0000 H       1  UNL1        0.0742
     27 H           7.0067    1.3577    0.0000 H       1  UNL1        0.0742
     28 H           2.3284   -2.0829    0.0000 H       1  UNL1        0.0689
     29 H           5.8592    2.5600    0.0000 H       1  UNL1        0.0605
     30 H           6.0862   -4.2869    0.0000 H       1  UNL1        0.0660
     31 H           6.9331   -4.0600    0.0000 H       1  UNL1        0.0660
     32 H           6.7062   -3.2131    0.0000 H       1  UNL1        0.0660
     33 H           7.8822    3.7500    0.0000 H       1  UNL1        0.0274
     34 H           7.2622    4.3700    0.0000 H       1  UNL1        0.0274
     35 H           6.6422    3.7500    0.0000 H       1  UNL1        0.0274
     36 H           7.8182    1.7131    0.0000 H       1  UNL1        0.0274
     37 H           8.6651    1.9400    0.0000 H       1  UNL1        0.0274
     38 H           8.4382    2.7869    0.0000 H       1  UNL1        0.0274
@<TRIPOS>BOND
     1     1     7   ar
     2     1    14   ar
     3     2     9    1
     4     2    15    1
     5     3    10   ar
     6     3    17   ar
     7     4    11    1
     8     4    20    1
     9     5    17    2
    10     6     7   ar
    11     6    11   ar
    12     6    12   ar
    13     7     9   ar
    14     8    10   ar
    15     8    11   ar
    16     8    13   ar
    17     9    10   ar
    18    12    14   ar
    19    12    23    1
    20    13    16   ar
    21    13    24    1
    22    14    25    1
    23    15    18    1
    24    15    26    1
    25    15    27    1
    26    16    17   ar
    27    16    28    1
    28    18    19    2
    29    18    29    1
    30    19    21    1
    31    19    22    1
    32    20    30    1
    33    20    31    1
    34    20    32    1
    35    21    33    1
    36    21    34    1
    37    21    35    1
    38    22    36    1
    39    22    37    1
    40    22    38    1
