@<TRIPOS>MOLECULE
IMPHY001573
 82 86 0 0 0
SMALL
GASTEIGER

@<TRIPOS>ATOM
      1 O           5.3307    0.8628    0.0000 O.3     1  UNL1       -0.3915
      2 O           2.5357   -2.6896    0.0000 O.3     1  UNL1       -0.3912
      3 O          11.4608    0.3969    0.0000 O.3     1  UNL1       -0.4802
      4 O          10.6064   -1.1097    0.0000 O.2     1  UNL1       -0.2504
      5 C           7.0628   -1.1372    0.0000 C.3     1  UNL1       -0.0207
      6 C           7.9288   -0.6372    0.0000 C.3     1  UNL1       -0.0231
      7 C           6.1968   -0.6372    0.0000 C.3     1  UNL1       -0.0034
      8 C           7.9288    0.3628    0.0000 C.3     1  UNL1       -0.0284
      9 C           5.2868   -1.1441    0.0000 C.3     1  UNL1       -0.0229
     10 C           8.8228    0.8974    0.0000 C.3     1  UNL1       -0.0154
     11 C           5.2787   -2.1857    0.0000 C.3     1  UNL1       -0.0278
     12 C           9.7288    0.3836    0.0000 C.3     1  UNL1        0.0712
     13 C           6.1968    0.3628    0.0000 C.3     1  UNL1        0.0594
     14 C           7.0789   -2.1788    0.0000 C.3     1  UNL1       -0.0465
     15 C           7.0628    0.8628    0.0000 C.3     1  UNL1       -0.0229
     16 C           8.8228   -1.1719    0.0000 C.3     1  UNL1       -0.0458
     17 C           6.1808   -2.7065    0.0000 C.3     1  UNL1       -0.0486
     18 C           9.7288   -0.6581    0.0000 C.3     1  UNL1       -0.0364
     19 C           4.3433   -2.7354    0.0000 C.3     1  UNL1       -0.0056
     20 C           9.0329    1.9113    0.0000 C.3     1  UNL1       -0.0163
     21 C           4.3599   -0.5800    0.0000 C.3     1  UNL1       -0.0446
     22 C           7.7056   -1.9033    0.0000 C.3     1  UNL1       -0.0587
     23 C           8.2709   -1.5769    0.0000 C.3     1  UNL1       -0.0588
     24 C          10.4911    1.0843    0.0000 C.3     1  UNL1       -0.0364
     25 C          10.0619    2.0266    0.0000 C.3     1  UNL1       -0.0452
     26 C           5.2945   -0.1441    0.0000 C.3     1  UNL1       -0.0589
     27 C           3.4037   -2.1929    0.0000 C.3     1  UNL1        0.0606
     28 C           3.4120   -1.1080    0.0000 C.3     1  UNL1       -0.0258
     29 C          10.5987   -0.1097    0.0000 C.2     1  UNL1        0.3112
     30 C           3.8467   -3.6034    0.0000 C.3     1  UNL1       -0.0572
     31 C           4.8466   -3.5995    0.0000 C.3     1  UNL1       -0.0572
     32 C           8.3593    2.6505    0.0000 C.2     1  UNL1       -0.0763
     33 C           8.6626    3.6034    0.0000 C.3     1  UNL1       -0.0438
     34 C           7.3824    2.4367    0.0000 C.2     1  UNL1       -0.0994
     35 H           6.9329   -0.2122    0.0000 H       1  UNL1        0.0336
     36 H           7.9223    1.2127    0.0000 H       1  UNL1        0.0310
     37 H           8.1300    1.3900    0.0000 H       1  UNL1        0.0320
     38 H           5.2820   -3.0357    0.0000 H       1  UNL1        0.0312
     39 H           6.1968    0.9828    0.0000 H       1  UNL1        0.0596
     40 H           7.2969   -2.7592    0.0000 H       1  UNL1        0.0271
     41 H           7.6880   -2.0632    0.0000 H       1  UNL1        0.0271
     42 H           7.4613    1.3377    0.0000 H       1  UNL1        0.0293
     43 H           6.6643    1.3377    0.0000 H       1  UNL1        0.0293
     44 H           8.4182   -1.6417    0.0000 H       1  UNL1        0.0271
     45 H           9.2164   -1.6509    0.0000 H       1  UNL1        0.0271
     46 H           5.7835   -3.1825    0.0000 H       1  UNL1        0.0268
     47 H           6.5818   -3.1794    0.0000 H       1  UNL1        0.0268
     48 H           9.9379   -1.2418    0.0000 H       1  UNL1        0.0276
     49 H          10.3397   -0.5520    0.0000 H       1  UNL1        0.0276
     50 H           9.2513    2.4916    0.0000 H       1  UNL1        0.0348
     51 H           4.7681   -0.1134    0.0000 H       1  UNL1        0.0271
     52 H           3.9700   -0.0980    0.0000 H       1  UNL1        0.0271
     53 H           7.2306   -2.3018    0.0000 H       1  UNL1        0.0235
     54 H           8.1041   -2.3782    0.0000 H       1  UNL1        0.0235
     55 H           8.1805   -1.5048    0.0000 H       1  UNL1        0.0235
     56 H           7.6884   -1.7890    0.0000 H       1  UNL1        0.0235
     57 H           8.4830   -2.1595    0.0000 H       1  UNL1        0.0235
     58 H           8.8535   -1.3648    0.0000 H       1  UNL1        0.0235
     59 H          10.8604    0.5863    0.0000 H       1  UNL1        0.0276
     60 H          11.0252    1.3992    0.0000 H       1  UNL1        0.0276
     61 H          10.6500    2.2229    0.0000 H       1  UNL1        0.0271
     62 H           9.9285    2.6321    0.0000 H       1  UNL1        0.0271
     63 H           5.9145   -0.1489    0.0000 H       1  UNL1        0.0235
     64 H           5.2993    0.4759    0.0000 H       1  UNL1        0.0235
     65 H           4.6745   -0.1393    0.0000 H       1  UNL1        0.0235
     66 H           3.4025   -2.8129    0.0000 H       1  UNL1        0.0599
     67 H           3.2075   -0.5227    0.0000 H       1  UNL1        0.0290
     68 H           2.8004   -1.2093    0.0000 H       1  UNL1        0.0290
     69 H           3.3085   -3.2954    0.0000 H       1  UNL1        0.0236
     70 H           3.5387   -4.1415    0.0000 H       1  UNL1        0.0236
     71 H           4.3848   -3.9113    0.0000 H       1  UNL1        0.0236
     72 H           4.3109   -3.9116    0.0000 H       1  UNL1        0.0236
     73 H           5.1587   -4.1352    0.0000 H       1  UNL1        0.0236
     74 H           5.3824   -3.2874    0.0000 H       1  UNL1        0.0236
     75 H           5.3307    1.4828    0.0000 H       1  UNL1        0.2098
     76 H           2.0000   -2.3775    0.0000 H       1  UNL1        0.2098
     77 H           9.2534    3.4153    0.0000 H       1  UNL1        0.0274
     78 H           8.8507    4.1941    0.0000 H       1  UNL1        0.0274
     79 H           8.0718    3.7914    0.0000 H       1  UNL1        0.0274
     80 H          12.0001    0.0911    0.0000 H       1  UNL1        0.2951
     81 H           6.9648    2.8950    0.0000 H       1  UNL1        0.0534
     82 H           7.1944    1.8459    0.0000 H       1  UNL1        0.0534
@<TRIPOS>BOND
     1    13     1    1
     2     1    75    1
     3    27     2    1
     4     2    76    1
     5     3    29    1
     6     3    80    1
     7     4    29    2
     8     5     6    1
     9     5     7    1
    10     5    14    1
    11     5    22    1
    12     6     8    1
    13     6    16    1
    14     6    23    1
    15     7     9    1
    16     7    13    1
    17     7    35    1
    18     8    10    1
    19     8    15    1
    20     8    36    1
    21     9    11    1
    22     9    21    1
    23     9    26    1
    24    10    12    1
    25    10    20    1
    26    10    37    1
    27    11    17    1
    28    11    19    1
    29    11    38    1
    30    12    18    1
    31    12    24    1
    32    12    29    1
    33    13    15    1
    34    13    39    1
    35    14    17    1
    36    14    40    1
    37    14    41    1
    38    15    42    1
    39    15    43    1
    40    16    18    1
    41    16    44    1
    42    16    45    1
    43    17    46    1
    44    17    47    1
    45    18    48    1
    46    18    49    1
    47    19    27    1
    48    19    30    1
    49    19    31    1
    50    20    25    1
    51    20    32    1
    52    20    50    1
    53    21    28    1
    54    21    51    1
    55    21    52    1
    56    22    53    1
    57    22    54    1
    58    22    55    1
    59    23    56    1
    60    23    57    1
    61    23    58    1
    62    24    25    1
    63    24    59    1
    64    24    60    1
    65    25    61    1
    66    25    62    1
    67    26    63    1
    68    26    64    1
    69    26    65    1
    70    27    28    1
    71    27    66    1
    72    28    67    1
    73    28    68    1
    74    30    69    1
    75    30    70    1
    76    30    71    1
    77    31    72    1
    78    31    73    1
    79    31    74    1
    80    32    33    1
    81    32    34    2
    82    33    77    1
    83    33    78    1
    84    33    79    1
    85    34    81    1
    86    34    82    1
