@<TRIPOS>MOLECULE
IMPHY009317
 43 45 0 0 0
SMALL
GASTEIGER

@<TRIPOS>ATOM
      1 O           6.3580   -0.1743    0.0000 O.2     1  UNL1       -0.4470
      2 O           4.5981   -1.1396    0.0000 O.3     1  UNL1       -0.4884
      3 O           2.8660    1.8604    0.0000 O.3     1  UNL1       -0.4884
      4 O           4.5981    2.8604    0.0000 O.3     1  UNL1       -0.5027
      5 O           8.1282    1.8846    0.0000 O.3     1  UNL1       -0.5007
      6 O           2.8660   -0.1396    0.0000 O.3     1  UNL1       -0.5007
      7 O           6.3465    2.8950    0.0000 O.2     1  UNL1       -0.2830
      8 O           8.9846   -2.6671    0.0000 O.3     1  UNL1       -0.4914
      9 O          10.7205   -1.6738    0.0000 O.3     1  UNL1       -0.5033
     10 C           5.4641    1.3604    0.0000 C.ar    1  UNL1        0.1165
     11 C           5.4641    0.3604    0.0000 C.ar    1  UNL1        0.1884
     12 C           7.2641    0.3396    0.0000 C.ar    1  UNL1        0.1809
     13 C           4.5981   -0.1396    0.0000 C.ar    1  UNL1        0.2087
     14 C           4.5981    1.8604    0.0000 C.ar    1  UNL1        0.1772
     15 C           6.3580    1.8951    0.0000 C.ar    1  UNL1        0.2381
     16 C           7.2641    1.3812    0.0000 C.ar    1  UNL1        0.2082
     17 C           8.1282   -0.1637    0.0000 C.ar    1  UNL1        0.0247
     18 C           3.7320    1.3604    0.0000 C.ar    1  UNL1        0.2078
     19 C           3.7320    0.3604    0.0000 C.ar    1  UNL1        0.2085
     20 C           8.1244   -1.1637    0.0000 C.ar    1  UNL1       -0.0055
     21 C           8.9962    0.3329    0.0000 C.ar    1  UNL1       -0.0473
     22 C           8.9884   -1.6671    0.0000 C.ar    1  UNL1        0.1619
     23 C           9.8602   -0.1704    0.0000 C.ar    1  UNL1       -0.0159
     24 C           9.8564   -1.1704    0.0000 C.ar    1  UNL1        0.1585
     25 C           3.7320   -1.6396    0.0000 C.3     1  UNL1        0.0791
     26 C           2.0000    1.3604    0.0000 C.3     1  UNL1        0.0791
     27 C           9.8487   -3.1704    0.0000 C.3     1  UNL1        0.0790
     28 H           7.5862   -1.4717    0.0000 H       1  UNL1        0.0662
     29 H           8.9985    0.9529    0.0000 H       1  UNL1        0.0626
     30 H          10.3984    0.1375    0.0000 H       1  UNL1        0.0655
     31 H           4.0611    3.1704    0.0000 H       1  UNL1        0.2923
     32 H           8.1258    2.5046    0.0000 H       1  UNL1        0.2924
     33 H           2.3291    0.1704    0.0000 H       1  UNL1        0.2924
     34 H           3.4220   -1.1027    0.0000 H       1  UNL1        0.0660
     35 H           3.1951   -1.9496    0.0000 H       1  UNL1        0.0660
     36 H           4.0420   -2.1765    0.0000 H       1  UNL1        0.0660
     37 H           1.6900    1.8973    0.0000 H       1  UNL1        0.0660
     38 H           1.4631    1.0504    0.0000 H       1  UNL1        0.0660
     39 H           2.3100    0.8235    0.0000 H       1  UNL1        0.0660
     40 H          11.2586   -1.3658    0.0000 H       1  UNL1        0.2923
     41 H           9.5366   -3.7061    0.0000 H       1  UNL1        0.0660
     42 H          10.3844   -3.4825    0.0000 H       1  UNL1        0.0660
     43 H          10.1607   -2.6347    0.0000 H       1  UNL1        0.0660
@<TRIPOS>BOND
     1     1    11   ar
     2     1    12   ar
     3     2    13    1
     4     2    25    1
     5     3    18    1
     6     3    26    1
     7     4    14    1
     8     4    31    1
     9     5    16    1
    10     5    32    1
    11     6    19    1
    12     6    33    1
    13     7    15    2
    14     8    22    1
    15     8    27    1
    16     9    24    1
    17     9    40    1
    18    10    11   ar
    19    10    14   ar
    20    10    15   ar
    21    11    13   ar
    22    12    16   ar
    23    12    17    1
    24    13    19   ar
    25    14    18   ar
    26    15    16   ar
    27    17    20   ar
    28    17    21   ar
    29    18    19   ar
    30    20    22   ar
    31    20    28    1
    32    21    23   ar
    33    21    29    1
    34    22    24   ar
    35    23    24   ar
    36    23    30    1
    37    25    34    1
    38    25    35    1
    39    25    36    1
    40    26    37    1
    41    26    38    1
    42    26    39    1
    43    27    41    1
    44    27    42    1
    45    27    43    1
