@<TRIPOS>MOLECULE
IMPHY017806
 17 17 0 0 0
SMALL
GASTEIGER

@<TRIPOS>ATOM
      1 O           4.5032   -0.6056    0.0000 O.2     1  UNL1       -0.4571
      2 O           7.0064    0.3423    0.0000 O.2     1  UNL1       -0.2924
      3 C           2.7431   -0.3268    0.0000 C.3     1  UNL1        0.0027
      4 C           3.6942   -0.0178    0.0000 C.ar    1  UNL1        0.1056
      5 C           4.0032    0.9333    0.0000 C.ar    1  UNL1       -0.0200
      6 C           2.0000    0.3423    0.0000 C.3     1  UNL1       -0.0584
      7 C           5.3122   -0.0178    0.0000 C.ar    1  UNL1        0.1670
      8 C           5.0032    0.9333    0.0000 C.ar    1  UNL1       -0.0130
      9 C           6.2633   -0.3268    0.0000 C.2     1  UNL1        0.1851
     10 H           2.2546   -0.7085    0.0000 H       1  UNL1        0.0341
     11 H           3.0342   -0.8742    0.0000 H       1  UNL1        0.0341
     12 H           3.6388    1.4348    0.0000 H       1  UNL1        0.0652
     13 H           2.4149    0.8031    0.0000 H       1  UNL1        0.0234
     14 H           1.5392    0.7572    0.0000 H       1  UNL1        0.0234
     15 H           1.5851   -0.1184    0.0000 H       1  UNL1        0.0234
     16 H           5.3676    1.4348    0.0000 H       1  UNL1        0.0656
     17 H           6.3922   -0.9333    0.0000 H       1  UNL1        0.1114
@<TRIPOS>BOND
     1     1     4   ar
     2     1     7   ar
     3     2     9    2
     4     3     4    1
     5     3     6    1
     6     3    10    1
     7     3    11    1
     8     4     5   ar
     9     5     8   ar
    10     5    12    1
    11     6    13    1
    12     6    14    1
    13     6    15    1
    14     7     8   ar
    15     7     9    1
    16     8    16    1
    17     9    17    1
