@<TRIPOS>MOLECULE
IMPHY010773
 13 14 0 0 0
SMALL
GASTEIGER

@<TRIPOS>ATOM
      1 C           3.4547   -1.3301    0.0000 C.2     1  UNL1        0.2344
      2 C           4.6063   -1.9980    0.0000 C.2     1  UNL1        0.2374
      3 C           4.6063   -3.3280    0.0000 C.2     1  UNL1        0.0874
      4 C           3.4547   -3.9902    0.0000 C.2     1  UNL1        0.1990
      5 C           1.1516   -3.9902    0.0000 C.ar    1  UNL1        0.0033
      6 C           0.0000   -3.3280    0.0000 C.ar    1  UNL1        0.0001
      7 C           0.0000   -1.9980    0.0000 C.ar    1  UNL1        0.0001
      8 C           1.1516   -1.3301    0.0000 C.ar    1  UNL1        0.0034
      9 C           2.3031   -3.3280    0.0000 C.ar    1  UNL1        0.0422
     10 C           2.3031   -1.9980    0.0000 C.ar    1  UNL1        0.0453
     11 O           3.4547    0.0000    0.0000 O.2     1  UNL1       -0.2831
     12 O           3.4547   -5.3202    0.0000 O.2     1  UNL1       -0.2865
     13 O           5.7578   -1.3301    0.0000 O.2     1  UNL1       -0.2830
@<TRIPOS>BOND
     1     1     2    1
     2     1    11    2
     3     1    10    1
     4     2     3    2
     5     2    13    1
     6     3     4    1
     7     4     9    1
     8     4    12    2
     9     5     9   ar
    10     5     6   ar
    11     6     7   ar
    12     7     8   ar
    13     8    10   ar
    14     9    10   ar
