@<TRIPOS>MOLECULE
IMPHY002732
 41 43 0 0 0
SMALL
GASTEIGER

@<TRIPOS>ATOM
      1 O           3.5836    0.3977    0.0000 O.3     1  UNL1       -0.4576
      2 O           4.5298    1.0930    0.0000 O.3     1  UNL1       -0.3799
      3 O           8.0321    0.0899    0.0000 O.3     1  UNL1       -0.3911
      4 O           2.0000   -0.4070    0.0000 O.2     1  UNL1       -0.2505
      5 C           6.2619    0.0930    0.0000 C.3     1  UNL1        0.0300
      6 C           5.3958    0.5930    0.0000 C.3     1  UNL1        0.1314
      7 C           4.5298    0.0930    0.0000 C.3     1  UNL1        0.1395
      8 C           4.5298   -0.9070    0.0000 C.3     1  UNL1        0.0119
      9 C           6.2619   -0.9070    0.0000 C.3     1  UNL1       -0.0418
     10 C           5.3958   -1.4070    0.0000 C.3     1  UNL1       -0.0453
     11 C           7.1719    0.5998    0.0000 C.3     1  UNL1        0.0639
     12 C           3.5836   -1.2117    0.0000 C.3     1  UNL1        0.0599
     13 C           5.3798    1.6345    0.0000 C.2     1  UNL1       -0.0413
     14 C           7.1799    1.6414    0.0000 C.3     1  UNL1       -0.0225
     15 C           7.1279   -0.4070    0.0000 C.3     1  UNL1       -0.0541
     16 C           6.2778    2.1623    0.0000 C.3     1  UNL1       -0.0268
     17 C           3.0000   -0.4070    0.0000 C.2     1  UNL1        0.3107
     18 C           3.2729   -2.1623    0.0000 C.3     1  UNL1       -0.0519
     19 C           4.5080    2.1245    0.0000 C.2     1  UNL1       -0.0966
     20 H           5.2660   -0.3320    0.0000 H       1  UNL1        0.0770
     21 H           4.4399   -1.7522    0.0000 H       1  UNL1        0.0345
     22 H           6.4739   -1.4896    0.0000 H       1  UNL1        0.0272
     23 H           6.8725   -0.7993    0.0000 H       1  UNL1        0.0272
     24 H           4.9973   -1.8820    0.0000 H       1  UNL1        0.0269
     25 H           5.7944   -1.8820    0.0000 H       1  UNL1        0.0269
     26 H           7.7118    0.9047    0.0000 H       1  UNL1        0.0600
     27 H           2.9711   -1.3079    0.0000 H       1  UNL1        0.0415
     28 H           7.7899    1.5306    0.0000 H       1  UNL1        0.0293
     29 H           7.3935    2.2235    0.0000 H       1  UNL1        0.0293
     30 H           6.8179   -0.9439    0.0000 H       1  UNL1        0.0237
     31 H           7.6648   -0.7170    0.0000 H       1  UNL1        0.0237
     32 H           7.4379    0.1299    0.0000 H       1  UNL1        0.0237
     33 H           6.6751    2.6382    0.0000 H       1  UNL1        0.0312
     34 H           5.8769    2.6352    0.0000 H       1  UNL1        0.0312
     35 H           3.9098    1.0930    0.0000 H       1  UNL1        0.2108
     36 H           2.6836   -1.9696    0.0000 H       1  UNL1        0.0238
     37 H           3.0803   -2.7516    0.0000 H       1  UNL1        0.0238
     38 H           3.8623   -2.3549    0.0000 H       1  UNL1        0.0238
     39 H           8.5726    0.3936    0.0000 H       1  UNL1        0.2098
     40 H           4.5009    2.7444    0.0000 H       1  UNL1        0.0535
     41 H           3.9747    1.8083    0.0000 H       1  UNL1        0.0535
@<TRIPOS>BOND
     1     1     7    1
     2     1    17    1
     3     6     2    1
     4     2    35    1
     5    11     3    1
     6     3    39    1
     7     4    17    2
     8     5     6    1
     9     5     9    1
    10     5    11    1
    11     5    15    1
    12     6     7    1
    13     6    13    1
    14     7     8    1
    15     7    20    1
    16     8    10    1
    17     8    12    1
    18     8    21    1
    19     9    10    1
    20     9    22    1
    21     9    23    1
    22    10    24    1
    23    10    25    1
    24    11    14    1
    25    11    26    1
    26    12    17    1
    27    12    18    1
    28    12    27    1
    29    13    16    1
    30    13    19    2
    31    14    16    1
    32    14    28    1
    33    14    29    1
    34    15    30    1
    35    15    31    1
    36    15    32    1
    37    16    33    1
    38    16    34    1
    39    18    36    1
    40    18    37    1
    41    18    38    1
    42    19    40    1
    43    19    41    1
