@<TRIPOS>MOLECULE
IMPHY016244
 26 25 0 0 0
SMALL
GASTEIGER

@<TRIPOS>ATOM
      1 O           8.9282    0.4400    0.0000 O.2     1  UNL1       -0.2963
      2 C           2.8660   -0.0600    0.0000 C.3     1  UNL1       -0.0467
      3 C           3.7320    0.4400    0.0000 C.3     1  UNL1       -0.0504
      4 C           4.5981   -0.0600    0.0000 C.3     1  UNL1       -0.0494
      5 C           5.4641    0.4400    0.0000 C.3     1  UNL1       -0.0344
      6 C           2.0000    0.4400    0.0000 C.3     1  UNL1       -0.0627
      7 C           2.8660   -1.0600    0.0000 C.3     1  UNL1       -0.0627
      8 C           6.3301   -0.0600    0.0000 C.2     1  UNL1       -0.0810
      9 C           7.1962    0.4400    0.0000 C.2     1  UNL1       -0.0264
     10 C           8.0622   -0.0600    0.0000 C.2     1  UNL1        0.1428
     11 H           2.8660    0.5600    0.0000 H       1  UNL1        0.0295
     12 H           4.1306    0.9149    0.0000 H       1  UNL1        0.0268
     13 H           3.3335    0.9149    0.0000 H       1  UNL1        0.0268
     14 H           4.1996   -0.5349    0.0000 H       1  UNL1        0.0268
     15 H           4.9966   -0.5349    0.0000 H       1  UNL1        0.0268
     16 H           5.8626    0.9149    0.0000 H       1  UNL1        0.0307
     17 H           5.0656    0.9149    0.0000 H       1  UNL1        0.0307
     18 H           2.3100    0.9769    0.0000 H       1  UNL1        0.0232
     19 H           1.4631    0.7500    0.0000 H       1  UNL1        0.0232
     20 H           1.6900   -0.0969    0.0000 H       1  UNL1        0.0232
     21 H           2.2460   -1.0600    0.0000 H       1  UNL1        0.0232
     22 H           2.8660   -1.6800    0.0000 H       1  UNL1        0.0232
     23 H           3.4860   -1.0600    0.0000 H       1  UNL1        0.0232
     24 H           6.3301   -0.6800    0.0000 H       1  UNL1        0.0573
     25 H           7.1962    1.0600    0.0000 H       1  UNL1        0.0646
     26 H           8.0622   -0.6800    0.0000 H       1  UNL1        0.1075
@<TRIPOS>BOND
     1     1    10    2
     2     2     3    1
     3     2     6    1
     4     2     7    1
     5     2    11    1
     6     3     4    1
     7     3    12    1
     8     3    13    1
     9     4     5    1
    10     4    14    1
    11     4    15    1
    12     5     8    1
    13     5    16    1
    14     5    17    1
    15     6    18    1
    16     6    19    1
    17     6    20    1
    18     7    21    1
    19     7    22    1
    20     7    23    1
    21     8     9    2
    22     8    24    1
    23     9    10    1
    24     9    25    1
    25    10    26    1
