@<TRIPOS>MOLECULE
IMPHY006010
 20 19 0 0 0
SMALL
GASTEIGER

@<TRIPOS>ATOM
      1 O           6.3301    0.7500    0.0000 O.3     1  UNL1       -0.4806
      2 O           5.4641   -0.7500    0.0000 O.2     1  UNL1       -0.2510
      3 C           3.7320    0.2500    0.0000 C.3     1  UNL1       -0.0341
      4 C           2.8660    0.7500    0.0000 C.3     1  UNL1       -0.0528
      5 C           4.5981    0.7500    0.0000 C.3     1  UNL1        0.0473
      6 C           3.7320   -0.7500    0.0000 C.3     1  UNL1       -0.0619
      7 C           2.0000    0.2500    0.0000 C.3     1  UNL1       -0.0650
      8 C           5.4641    0.2500    0.0000 C.2     1  UNL1        0.3049
      9 H           4.2690   -0.0600    0.0000 H       1  UNL1        0.0303
     10 H           3.2646    1.2250    0.0000 H       1  UNL1        0.0265
     11 H           2.4675    1.2250    0.0000 H       1  UNL1        0.0265
     12 H           4.9966    1.2250    0.0000 H       1  UNL1        0.0380
     13 H           4.1996    1.2250    0.0000 H       1  UNL1        0.0380
     14 H           3.1120   -0.7500    0.0000 H       1  UNL1        0.0233
     15 H           3.7320   -1.3700    0.0000 H       1  UNL1        0.0233
     16 H           4.3520   -0.7500    0.0000 H       1  UNL1        0.0233
     17 H           1.6900    0.7869    0.0000 H       1  UNL1        0.0230
     18 H           1.4631   -0.0600    0.0000 H       1  UNL1        0.0230
     19 H           2.3100   -0.2869    0.0000 H       1  UNL1        0.0230
     20 H           6.8671    0.4400    0.0000 H       1  UNL1        0.2951
@<TRIPOS>BOND
     1     1     8    1
     2     1    20    1
     3     2     8    2
     4     3     4    1
     5     3     5    1
     6     3     6    1
     7     3     9    1
     8     4     7    1
     9     4    10    1
    10     4    11    1
    11     5     8    1
    12     5    12    1
    13     5    13    1
    14     6    14    1
    15     6    15    1
    16     6    16    1
    17     7    17    1
    18     7    18    1
    19     7    19    1
