@<TRIPOS>MOLECULE
IMPHY003059
 48 52 0 0 0
SMALL
GASTEIGER

@<TRIPOS>ATOM
      1 O           7.4070    2.0506    0.0000 O.co2   1  UNL1       -0.7742
      2 O           6.5246   -1.4840    0.0000 O.3     1  UNL1       -0.3812
      3 O           4.6874    2.6283    0.0000 O.3     1  UNL1       -0.4910
      4 O           9.3729   -3.0309    0.0000 O.3     1  UNL1       -0.4526
      5 O          10.8248   -2.1927    0.0000 O.3     1  UNL1       -0.4526
      6 O           2.8680    1.5964    0.0000 O.3     1  UNL1       -0.4914
      7 N           7.4070    1.0506    0.0000 N.3     1  UNL1        0.2283
      8 C           7.4070    0.0506    0.0000 C.3     1  UNL1        0.0356
      9 C           8.2730    1.5506    0.0000 C.3     1  UNL1       -0.0276
     10 C           6.5130   -0.4840    0.0000 C.3     1  UNL1        0.1273
     11 C           6.5130    1.5853    0.0000 C.3     1  UNL1       -0.0020
     12 C           8.2730   -0.4494    0.0000 C.ar    1  UNL1        0.0100
     13 C           9.1390    1.0506    0.0000 C.3     1  UNL1        0.0132
     14 C           5.6070    1.0714    0.0000 C.ar    1  UNL1        0.0480
     15 C           9.1390    0.0506    0.0000 C.ar    1  UNL1       -0.0301
     16 C           5.6070    0.0298    0.0000 C.ar    1  UNL1       -0.0015
     17 C           8.2570   -1.4909    0.0000 C.ar    1  UNL1       -0.0073
     18 C          10.0490   -0.4562    0.0000 C.ar    1  UNL1       -0.0123
     19 C           4.6758    1.6284    0.0000 C.ar    1  UNL1        0.1700
     20 C           4.6758   -0.5271    0.0000 C.ar    1  UNL1       -0.0518
     21 C           9.1550   -2.0186    0.0000 C.ar    1  UNL1        0.1667
     22 C          10.0571   -1.4978    0.0000 C.ar    1  UNL1        0.1665
     23 C           3.7320    1.0931    0.0000 C.ar    1  UNL1        0.1620
     24 C           3.7320    0.0081    0.0000 C.ar    1  UNL1       -0.0159
     25 C          10.4028   -3.1383    0.0000 C.3     1  UNL1        0.2332
     26 C           3.8272    3.1383    0.0000 C.3     1  UNL1        0.0790
     27 C           2.0000    1.0998    0.0000 C.3     1  UNL1        0.0790
     28 H           7.4118   -0.5694    0.0000 H       1  UNL1        0.0933
     29 H           8.6716    2.0256    0.0000 H       1  UNL1        0.0817
     30 H           7.8745    2.0256    0.0000 H       1  UNL1        0.0817
     31 H           5.9791   -0.7992    0.0000 H       1  UNL1        0.0705
     32 H           6.9176    2.0551    0.0000 H       1  UNL1        0.0868
     33 H           6.1194    2.0643    0.0000 H       1  UNL1        0.0868
     34 H           9.7496    0.9430    0.0000 H       1  UNL1        0.0365
     35 H           9.3511    1.6332    0.0000 H       1  UNL1        0.0365
     36 H           7.7165   -1.7947    0.0000 H       1  UNL1        0.0660
     37 H          10.5824   -0.1400    0.0000 H       1  UNL1        0.0658
     38 H           4.6830   -1.1471    0.0000 H       1  UNL1        0.0622
     39 H           5.9913   -1.8002    0.0000 H       1  UNL1        0.2105
     40 H           3.1963   -0.3039    0.0000 H       1  UNL1        0.0655
     41 H          10.2741   -3.7448    0.0000 H       1  UNL1        0.1166
     42 H          10.9924   -3.3300    0.0000 H       1  UNL1        0.1166
     43 H           4.1434    3.6716    0.0000 H       1  UNL1        0.0660
     44 H           3.2939    3.4544    0.0000 H       1  UNL1        0.0660
     45 H           3.5110    2.6050    0.0000 H       1  UNL1        0.0660
     46 H           1.6921    1.6379    0.0000 H       1  UNL1        0.0660
     47 H           1.4619    0.7919    0.0000 H       1  UNL1        0.0660
     48 H           2.3079    0.5617    0.0000 H       1  UNL1        0.0660
@<TRIPOS>UNITY_ATOM_ATTR
1 1
charge -1
7 1
charge 1
@<TRIPOS>BOND
     1     1     7    1
     2     2    10    1
     3     2    39    1
     4     3    19    1
     5     3    26    1
     6     4    21    1
     7     4    25    1
     8     5    22    1
     9     5    25    1
    10     6    23    1
    11     6    27    1
    12     7     8    1
    13     7     9    1
    14     7    11    1
    15     8    10    1
    16     8    12    1
    17     8    28    1
    18     9    13    1
    19     9    29    1
    20     9    30    1
    21    10    16    1
    22    10    31    1
    23    11    14    1
    24    11    32    1
    25    11    33    1
    26    12    15   ar
    27    12    17   ar
    28    13    15    1
    29    13    34    1
    30    13    35    1
    31    14    16   ar
    32    14    19   ar
    33    15    18   ar
    34    16    20   ar
    35    17    21   ar
    36    17    36    1
    37    18    22   ar
    38    18    37    1
    39    19    23   ar
    40    20    24   ar
    41    20    38    1
    42    21    22   ar
    43    23    24   ar
    44    24    40    1
    45    25    41    1
    46    25    42    1
    47    26    43    1
    48    26    44    1
    49    26    45    1
    50    27    46    1
    51    27    47    1
    52    27    48    1
