@<TRIPOS>MOLECULE
IMPHY007009
 49 51 0 0 0
SMALL
GASTEIGER

@<TRIPOS>ATOM
      1 O           6.8671   -0.9050    0.0000 O.3     1  UNL1       -0.3095
      2 O           6.0010    0.5950    0.0000 O.2     1  UNL1       -0.4701
      3 O           8.3719   -0.6613    0.0000 O.3     1  UNL1       -0.3817
      4 O           5.1350   -0.9050    0.0000 O.3     1  UNL1       -0.3404
      5 O          10.4022    0.1122    0.0000 O.3     1  UNL1       -0.3918
      6 O           6.8671   -2.9050    0.0000 O.3     1  UNL1       -0.3841
      7 O           5.1350   -3.9050    0.0000 O.3     1  UNL1       -0.3864
      8 O           3.4030   -2.9050    0.0000 O.3     1  UNL1       -0.3865
      9 O           2.5369   -1.4050    0.0000 O.3     1  UNL1       -0.3924
     10 O           6.0010    3.5950    0.0000 O.3     1  UNL1       -0.4773
     11 O           7.7331    3.5950    0.0000 O.2     1  UNL1       -0.2454
     12 C           7.7331    0.5950    0.0000 C.3     1  UNL1        0.0666
     13 C           8.6793    0.2903    0.0000 C.3     1  UNL1        0.1164
     14 C           7.7331    1.5950    0.0000 C.3     1  UNL1        0.0235
     15 C           6.8671    0.0950    0.0000 C.3     1  UNL1        0.2101
     16 C           9.2629    1.0950    0.0000 C.2     1  UNL1       -0.0535
     17 C           8.6793    1.8997    0.0000 C.2     1  UNL1       -0.0769
     18 C           6.0010   -1.4050    0.0000 C.3     1  UNL1        0.1918
     19 C           6.8671    2.0950    0.0000 C.2     1  UNL1        0.0779
     20 C           9.4893   -0.2961    0.0000 C.3     1  UNL1        0.0770
     21 C           6.0010   -2.4050    0.0000 C.3     1  UNL1        0.1342
     22 C           5.1350   -2.9050    0.0000 C.3     1  UNL1        0.1141
     23 C           4.2690   -2.4050    0.0000 C.3     1  UNL1        0.1119
     24 C           4.2690   -1.4050    0.0000 C.3     1  UNL1        0.1130
     25 C           6.0010    1.5950    0.0000 C.2     1  UNL1        0.0984
     26 C           3.4030   -0.9050    0.0000 C.3     1  UNL1        0.0730
     27 C           6.8671    3.0950    0.0000 C.2     1  UNL1        0.3363
     28 H           7.8230   -0.2502    0.0000 H       1  UNL1        0.0402
     29 H           7.8230    2.4402    0.0000 H       1  UNL1        0.0400
     30 H           7.4040   -0.2150    0.0000 H       1  UNL1        0.1060
     31 H           9.8829    1.0950    0.0000 H       1  UNL1        0.0598
     32 H           8.8719    2.4891    0.0000 H       1  UNL1        0.0576
     33 H           6.0010   -0.7850    0.0000 H       1  UNL1        0.0939
     34 H           9.0441   -0.7276    0.0000 H       1  UNL1        0.0589
     35 H           9.8369   -0.8095    0.0000 H       1  UNL1        0.0589
     36 H           6.0010   -3.0250    0.0000 H       1  UNL1        0.0671
     37 H           4.5981   -3.2150    0.0000 H       1  UNL1        0.0648
     38 H           3.7320   -2.0950    0.0000 H       1  UNL1        0.0647
     39 H           4.2690   -0.7850    0.0000 H       1  UNL1        0.0647
     40 H           5.4641    1.9050    0.0000 H       1  UNL1        0.1029
     41 H           8.7876   -1.1214    0.0000 H       1  UNL1        0.2107
     42 H           3.8015   -0.4301    0.0000 H       1  UNL1        0.0584
     43 H           3.0044   -0.4301    0.0000 H       1  UNL1        0.0584
     44 H           6.8671   -3.5250    0.0000 H       1  UNL1        0.2101
     45 H          10.9044   -0.2514    0.0000 H       1  UNL1        0.2095
     46 H           4.5981   -4.2150    0.0000 H       1  UNL1        0.2100
     47 H           3.4030   -3.5250    0.0000 H       1  UNL1        0.2100
     48 H           2.0000   -1.0950    0.0000 H       1  UNL1        0.2095
     49 H           6.0010    4.2150    0.0000 H       1  UNL1        0.2954
@<TRIPOS>BOND
     1    15     1    1
     2    18     1    1
     3     2    15    1
     4     2    25    1
     5    13     3    1
     6     3    41    1
     7     4    18    1
     8     4    24    1
     9     5    20    1
    10     5    45    1
    11    21     6    1
    12     6    44    1
    13    22     7    1
    14     7    46    1
    15    23     8    1
    16     8    47    1
    17     9    26    1
    18     9    48    1
    19    10    27    1
    20    10    49    1
    21    11    27    2
    22    12    13    1
    23    12    14    1
    24    12    15    1
    25    12    28    1
    26    13    16    1
    27    13    20    1
    28    14    17    1
    29    14    19    1
    30    14    29    1
    31    15    30    1
    32    16    17    2
    33    16    31    1
    34    17    32    1
    35    18    21    1
    36    18    33    1
    37    19    25    2
    38    19    27    1
    39    20    34    1
    40    20    35    1
    41    21    22    1
    42    21    36    1
    43    22    23    1
    44    22    37    1
    45    23    24    1
    46    23    38    1
    47    24    26    1
    48    24    39    1
    49    25    40    1
    50    26    42    1
    51    26    43    1
