@<TRIPOS>MOLECULE
IMPHY001400
 222 233 0 0 0
SMALL
GASTEIGER

@<TRIPOS>ATOM
      1 O           9.2345   -5.5888    0.0000 O.3     1  UNL1       -0.3428
      2 O           7.4271   -4.5360    0.0000 O.3     1  UNL1       -0.3881
      3 O          10.6290    0.1850    0.0000 O.3     1  UNL1       -0.3941
      4 O          14.6337    1.5672    0.0000 O.3     1  UNL1       -0.4318
      5 O           6.8230   -2.0688    0.0000 O.3     1  UNL1       -0.4802
      6 O           6.4360   -3.4290    0.0000 O.2     1  UNL1       -0.2503
      7 O          12.9020    1.6005    0.0000 O.2     1  UNL1       -0.2501
      8 O           7.5024   -5.5888    0.0000 O.3     1  UNL1       -0.3405
      9 O          15.5285    3.0502    0.0000 O.3     1  UNL1       -0.3327
     10 O           9.2345   -7.5888    0.0000 O.3     1  UNL1       -0.3841
     11 O           7.5024   -8.5888    0.0000 O.3     1  UNL1       -0.3864
     12 O          12.9212    2.6004    0.0000 O.3     1  UNL1       -0.3365
     13 O           5.7704   -7.5888    0.0000 O.3     1  UNL1       -0.3865
     14 O          12.9598    4.6000    0.0000 O.3     1  UNL1       -0.3389
     15 O          14.7108    5.5664    0.0000 O.3     1  UNL1       -0.4529
     16 O           4.9044   -6.0888    0.0000 O.3     1  UNL1       -0.3924
     17 O          12.0843    4.1168    0.0000 O.3     1  UNL1       -0.3431
     18 O          13.8546    6.0830    0.0000 O.3     1  UNL1       -0.3431
     19 O          11.1702    1.6339    0.0000 O.3     1  UNL1       -0.3841
     20 O          11.1416    6.3090    0.0000 O.3     1  UNL1       -0.3841
     21 O           9.4578    2.6671    0.0000 O.3     1  UNL1       -0.3864
     22 O           9.4963    4.6667    0.0000 O.3     1  UNL1       -0.3402
     23 O          15.6056    7.0494    0.0000 O.2     1  UNL1       -0.2456
     24 O          11.2859    7.6328    0.0000 O.3     1  UNL1       -0.3864
     25 O          13.0369    8.5992    0.0000 O.3     1  UNL1       -0.3866
     26 O           8.6016    3.1837    0.0000 O.3     1  UNL1       -0.3460
     27 O           7.7839    5.6999    0.0000 O.3     1  UNL1       -0.3841
     28 O           6.0329    4.7335    0.0000 O.3     1  UNL1       -0.3864
     29 O           5.9943    2.7339    0.0000 O.3     1  UNL1       -0.3405
     30 O           5.1574    4.2503    0.0000 O.3     1  UNL1       -0.3405
     31 O          20.7429    3.9499    0.0000 O.3     1  UNL1       -0.4951
     32 O           4.2433    1.7674    0.0000 O.3     1  UNL1       -0.3841
     33 O           2.5309    2.8006    0.0000 O.3     1  UNL1       -0.3864
     34 O           2.5694    4.8002    0.0000 O.3     1  UNL1       -0.3865
     35 O           3.4642    6.2833    0.0000 O.3     1  UNL1       -0.3924
     36 C          11.0711   -1.4336    0.0000 C.3     1  UNL1       -0.0170
     37 C          11.0596   -2.4335    0.0000 C.3     1  UNL1       -0.0256
     38 C          10.1595   -2.9578    0.0000 C.3     1  UNL1       -0.0221
     39 C          11.9429   -0.9436    0.0000 C.3     1  UNL1        0.0208
     40 C           9.2594   -2.4335    0.0000 C.3     1  UNL1       -0.0173
     41 C          10.1834   -0.8886    0.0000 C.3     1  UNL1       -0.0462
     42 C          12.8030   -1.4536    0.0000 C.2     1  UNL1       -0.0604
     43 C           9.2715   -1.3919    0.0000 C.3     1  UNL1       -0.0481
     44 C           8.3095   -2.9578    0.0000 C.3     1  UNL1        0.0962
     45 C          13.7188   -0.9573    0.0000 C.3     1  UNL1       -0.0031
     46 C          11.9197   -2.9435    0.0000 C.3     1  UNL1       -0.0306
     47 C          10.1720   -4.0427    0.0000 C.3     1  UNL1       -0.0180
     48 C          11.9388    0.0980    0.0000 C.3     1  UNL1       -0.0400
     49 C          13.7389    0.0841    0.0000 C.3     1  UNL1        0.0744
     50 C          11.4240   -0.4979    0.0000 C.3     1  UNL1       -0.0584
     51 C          12.8429    0.6153    0.0000 C.3     1  UNL1       -0.0358
     52 C           9.2345   -4.5888    0.0000 C.3     1  UNL1        0.0891
     53 C           8.2970   -4.0427    0.0000 C.3     1  UNL1        0.0971
     54 C          12.7915   -2.4535    0.0000 C.2     1  UNL1       -0.0836
     55 C          11.0236   -3.4611    0.0000 C.3     1  UNL1       -0.0589
     56 C          10.9601   -0.7586    0.0000 C.3     1  UNL1        0.0540
     57 C          14.6391   -1.5321    0.0000 C.3     1  UNL1       -0.0403
     58 C          14.6806    0.6230    0.0000 C.3     1  UNL1       -0.0362
     59 C          15.5930   -1.0151    0.0000 C.3     1  UNL1       -0.0343
     60 C          15.6139    0.0697    0.0000 C.3     1  UNL1       -0.0468
     61 C           7.8229   -2.0842    0.0000 C.3     1  UNL1       -0.0466
     62 C           7.3096   -2.9424    0.0000 C.2     1  UNL1        0.3135
     63 C          13.7582    1.0839    0.0000 C.2     1  UNL1        0.3161
     64 C          16.5928   -1.0382    0.0000 C.3     1  UNL1       -0.0598
     65 C          16.0729   -1.8925    0.0000 C.3     1  UNL1       -0.0598
     66 C           8.3685   -6.0888    0.0000 C.3     1  UNL1        0.1883
     67 C           8.3685   -7.0888    0.0000 C.3     1  UNL1        0.1341
     68 C          14.6530    2.5670    0.0000 C.3     1  UNL1        0.2341
     69 C           7.5024   -7.5888    0.0000 C.3     1  UNL1        0.1141
     70 C           6.6364   -6.0888    0.0000 C.3     1  UNL1        0.1130
     71 C          13.7967    3.0836    0.0000 C.3     1  UNL1        0.1534
     72 C           6.6364   -7.0888    0.0000 C.3     1  UNL1        0.1119
     73 C          13.8160    4.0834    0.0000 C.3     1  UNL1        0.1330
     74 C          15.5477    4.0500    0.0000 C.3     1  UNL1        0.0994
     75 C          14.6915    4.5666    0.0000 C.3     1  UNL1        0.1578
     76 C           5.7704   -5.5888    0.0000 C.3     1  UNL1        0.0730
     77 C          16.5476    4.0307    0.0000 C.3     1  UNL1       -0.0350
     78 C          12.0650    3.1170    0.0000 C.3     1  UNL1        0.1885
     79 C          12.9791    5.5998    0.0000 C.3     1  UNL1        0.1884
     80 C          11.1895    2.6337    0.0000 C.3     1  UNL1        0.1341
     81 C          12.1228    6.1164    0.0000 C.3     1  UNL1        0.1341
     82 C          10.3333    3.1503    0.0000 C.3     1  UNL1        0.1143
     83 C          15.5863    6.0496    0.0000 C.2     1  UNL1        0.3324
     84 C          11.2281    4.6334    0.0000 C.3     1  UNL1        0.0877
     85 C          10.3526    4.1501    0.0000 C.3     1  UNL1        0.1160
     86 C          12.1421    7.1162    0.0000 C.3     1  UNL1        0.1140
     87 C          13.8738    7.0828    0.0000 C.3     1  UNL1        0.0873
     88 C          13.0176    7.5994    0.0000 C.3     1  UNL1        0.1095
     89 C          10.6001    5.4116    0.0000 C.3     1  UNL1       -0.0361
     90 C          16.4425    5.5330    0.0000 C.2     1  UNL1        0.0231
     91 C          14.7493    7.5660    0.0000 C.3     1  UNL1       -0.0361
     92 C           8.6208    4.1835    0.0000 C.3     1  UNL1        0.1880
     93 C          17.3180    6.0162    0.0000 C.2     1  UNL1       -0.0478
     94 C           7.7646    4.7001    0.0000 C.3     1  UNL1        0.1341
     95 C          18.1742    5.4997    0.0000 C.ar    1  UNL1       -0.0246
     96 C           6.8891    4.2169    0.0000 C.3     1  UNL1        0.1141
     97 C           7.7260    2.7005    0.0000 C.3     1  UNL1        0.0796
     98 C           6.8698    3.2171    0.0000 C.3     1  UNL1        0.1134
     99 C          19.0497    5.9829    0.0000 C.ar    1  UNL1       -0.0511
    100 C          18.1550    4.4998    0.0000 C.ar    1  UNL1       -0.0511
    101 C          19.9060    5.4663    0.0000 C.ar    1  UNL1       -0.0194
    102 C          19.0112    3.9832    0.0000 C.ar    1  UNL1       -0.0194
    103 C           5.1381    3.2505    0.0000 C.3     1  UNL1        0.1884
    104 C          19.8867    4.4665    0.0000 C.ar    1  UNL1        0.1201
    105 C           4.2626    2.7673    0.0000 C.3     1  UNL1        0.1341
    106 C           3.4064    3.2838    0.0000 C.3     1  UNL1        0.1141
    107 C           4.3011    4.7669    0.0000 C.3     1  UNL1        0.1130
    108 C           3.4256    4.2837    0.0000 C.3     1  UNL1        0.1119
    109 C           4.3204    5.7667    0.0000 C.3     1  UNL1        0.0730
    110 C          21.6184    4.4331    0.0000 C.3     1  UNL1        0.0788
    111 H          11.8005   -2.0170    0.0000 H       1  UNL1        0.0315
    112 H           8.5299   -1.9972    0.0000 H       1  UNL1        0.0317
    113 H          10.5934   -0.4235    0.0000 H       1  UNL1        0.0271
    114 H           9.7953   -0.4051    0.0000 H       1  UNL1        0.0271
    115 H           9.0692   -0.8059    0.0000 H       1  UNL1        0.0269
    116 H           8.6594   -1.4910    0.0000 H       1  UNL1        0.0269
    117 H          13.6926   -1.8069    0.0000 H       1  UNL1        0.0357
    118 H          11.5157   -3.4138    0.0000 H       1  UNL1        0.0310
    119 H          12.3127   -3.4230    0.0000 H       1  UNL1        0.0310
    120 H          10.3878   -4.6240    0.0000 H       1  UNL1        0.0296
    121 H          10.7816   -3.9296    0.0000 H       1  UNL1        0.0296
    122 H          11.7275    0.6809    0.0000 H       1  UNL1        0.0275
    123 H          11.3284   -0.0104    0.0000 H       1  UNL1        0.0275
    124 H          12.0041   -0.7167    0.0000 H       1  UNL1        0.0235
    125 H          11.6428    0.0822    0.0000 H       1  UNL1        0.0235
    126 H          10.8439   -0.2791    0.0000 H       1  UNL1        0.0235
    127 H          13.2457    1.0867    0.0000 H       1  UNL1        0.0276
    128 H          12.4475    1.0928    0.0000 H       1  UNL1        0.0276
    129 H           8.6970   -4.8978    0.0000 H       1  UNL1        0.0623
    130 H           8.2934   -4.6627    0.0000 H       1  UNL1        0.0630
    131 H          13.3248   -2.7697    0.0000 H       1  UNL1        0.0572
    132 H          10.7115   -3.9969    0.0000 H       1  UNL1        0.0235
    133 H          11.5593   -3.7732    0.0000 H       1  UNL1        0.0235
    134 H          11.3356   -2.9254    0.0000 H       1  UNL1        0.0235
    135 H          10.3483   -0.8592    0.0000 H       1  UNL1        0.0566
    136 H          10.9530   -1.3786    0.0000 H       1  UNL1        0.0566
    137 H          14.2255   -1.9940    0.0000 H       1  UNL1        0.0276
    138 H          15.0234   -2.0186    0.0000 H       1  UNL1        0.0276
    139 H          15.0834    1.0943    0.0000 H       1  UNL1        0.0276
    140 H          14.2852    1.1005    0.0000 H       1  UNL1        0.0276
    141 H          16.2226   -0.0482    0.0000 H       1  UNL1        0.0271
    142 H          15.8342    0.6492    0.0000 H       1  UNL1        0.0271
    143 H           8.3646   -1.7825    0.0000 H       1  UNL1        0.0241
    144 H           7.5212   -1.5425    0.0000 H       1  UNL1        0.0241
    145 H           7.2813   -2.3858    0.0000 H       1  UNL1        0.0241
    146 H          16.5784   -1.6581    0.0000 H       1  UNL1        0.0235
    147 H          17.2126   -1.0526    0.0000 H       1  UNL1        0.0235
    148 H          16.6071   -0.4184    0.0000 H       1  UNL1        0.0235
    149 H          15.5289   -2.1900    0.0000 H       1  UNL1        0.0235
    150 H          16.3704   -2.4364    0.0000 H       1  UNL1        0.0235
    151 H          16.6168   -1.5950    0.0000 H       1  UNL1        0.0235
    152 H           6.8071   -4.5312    0.0000 H       1  UNL1        0.2099
    153 H          10.0197    0.2997    0.0000 H       1  UNL1        0.2094
    154 H           8.9054   -6.3988    0.0000 H       1  UNL1        0.0938
    155 H           6.2031   -2.0592    0.0000 H       1  UNL1        0.2951
    156 H           8.3685   -7.7088    0.0000 H       1  UNL1        0.0671
    157 H          14.1102    2.2674    0.0000 H       1  UNL1        0.1085
    158 H           6.9655   -7.8988    0.0000 H       1  UNL1        0.0648
    159 H           6.6364   -5.4688    0.0000 H       1  UNL1        0.0647
    160 H          13.2659    3.4039    0.0000 H       1  UNL1        0.0687
    161 H           6.0995   -6.7788    0.0000 H       1  UNL1        0.0647
    162 H          13.8280    4.7033    0.0000 H       1  UNL1        0.0663
    163 H           9.2345   -8.2088    0.0000 H       1  UNL1        0.2101
    164 H          15.9776    3.6032    0.0000 H       1  UNL1        0.0632
    165 H          15.2343    4.8662    0.0000 H       1  UNL1        0.0788
    166 H           6.1689   -5.1139    0.0000 H       1  UNL1        0.0584
    167 H           5.3719   -5.1139    0.0000 H       1  UNL1        0.0584
    168 H           6.9655   -8.8988    0.0000 H       1  UNL1        0.2100
    169 H           5.7704   -8.2088    0.0000 H       1  UNL1        0.2100
    170 H          16.5356    3.4108    0.0000 H       1  UNL1        0.0256
    171 H          17.1674    4.0188    0.0000 H       1  UNL1        0.0256
    172 H          16.5595    4.6506    0.0000 H       1  UNL1        0.0256
    173 H          12.0531    2.4971    0.0000 H       1  UNL1        0.0938
    174 H           4.3674   -5.7788    0.0000 H       1  UNL1        0.2095
    175 H          12.4362    5.3002    0.0000 H       1  UNL1        0.0938
    176 H          10.6467    2.3341    0.0000 H       1  UNL1        0.0671
    177 H          11.8996    5.5380    0.0000 H       1  UNL1        0.0671
    178 H           9.8024    3.4706    0.0000 H       1  UNL1        0.0648
    179 H          11.6357    5.1005    0.0000 H       1  UNL1        0.0621
    180 H          10.3645    4.7700    0.0000 H       1  UNL1        0.0650
    181 H          11.5993    6.8166    0.0000 H       1  UNL1        0.0648
    182 H          14.4047    6.7625    0.0000 H       1  UNL1        0.0621
    183 H          11.7011    1.3136    0.0000 H       1  UNL1        0.2101
    184 H          12.4867    7.9197    0.0000 H       1  UNL1        0.0646
    185 H          11.0827    5.8010    0.0000 H       1  UNL1        0.0255
    186 H          10.2108    5.8942    0.0000 H       1  UNL1        0.0255
    187 H          10.1176    5.0224    0.0000 H       1  UNL1        0.0255
    188 H          16.7422    4.9903    0.0000 H       1  UNL1        0.0689
    189 H          10.9408    6.8956    0.0000 H       1  UNL1        0.2101
    190 H           9.4458    2.0472    0.0000 H       1  UNL1        0.2100
    191 H          15.0489    7.0232    0.0000 H       1  UNL1        0.0255
    192 H          15.2921    7.8656    0.0000 H       1  UNL1        0.0255
    193 H          14.4497    8.1088    0.0000 H       1  UNL1        0.0255
    194 H          11.2978    8.2527    0.0000 H       1  UNL1        0.2100
    195 H           8.6328    4.8034    0.0000 H       1  UNL1        0.0937
    196 H          13.5797    8.8988    0.0000 H       1  UNL1        0.2100
    197 H          17.3300    6.6361    0.0000 H       1  UNL1        0.0626
    198 H           7.2337    5.0204    0.0000 H       1  UNL1        0.0671
    199 H           6.3463    3.9173    0.0000 H       1  UNL1        0.0648
    200 H           7.3184    2.2333    0.0000 H       1  UNL1        0.0587
    201 H           8.1154    2.2180    0.0000 H       1  UNL1        0.0587
    202 H           7.8137    2.8968    0.0000 H       1  UNL1        0.0647
    203 H           7.2530    6.0202    0.0000 H       1  UNL1        0.2101
    204 H          19.0617    6.6028    0.0000 H       1  UNL1        0.0625
    205 H          17.6122    4.2002    0.0000 H       1  UNL1        0.0625
    206 H           6.0448    5.3534    0.0000 H       1  UNL1        0.2100
    207 H          20.4488    5.7659    0.0000 H       1  UNL1        0.0654
    208 H          18.9992    3.3634    0.0000 H       1  UNL1        0.0654
    209 H           5.1261    2.6306    0.0000 H       1  UNL1        0.0938
    210 H           3.7198    2.4676    0.0000 H       1  UNL1        0.0671
    211 H           2.8755    3.6041    0.0000 H       1  UNL1        0.0648
    212 H           4.8439    5.0665    0.0000 H       1  UNL1        0.0647
    213 H           3.4376    4.9035    0.0000 H       1  UNL1        0.0647
    214 H           3.7005    1.4678    0.0000 H       1  UNL1        0.2101
    215 H           4.9288    5.6473    0.0000 H       1  UNL1        0.0584
    216 H           4.5437    6.3451    0.0000 H       1  UNL1        0.0584
    217 H          21.9180    3.8903    0.0000 H       1  UNL1        0.0660
    218 H          22.1612    4.7327    0.0000 H       1  UNL1        0.0660
    219 H          21.3188    4.9759    0.0000 H       1  UNL1        0.0660
    220 H           2.0000    3.1209    0.0000 H       1  UNL1        0.2100
    221 H           2.0266    4.5007    0.0000 H       1  UNL1        0.2100
    222 H           3.4761    6.9032    0.0000 H       1  UNL1        0.2095
@<TRIPOS>BOND
     1    52     1    1
     2    66     1    1
     3    53     2    1
     4     2   152    1
     5     3    56    1
     6     3   153    1
     7     4    63    1
     8    68     4    1
     9     5    62    1
    10     5   155    1
    11     6    62    2
    12     7    63    2
    13     8    66    1
    14     8    70    1
    15     9    68    1
    16     9    74    1
    17    67    10    1
    18    10   163    1
    19    69    11    1
    20    11   168    1
    21    71    12    1
    22    78    12    1
    23    72    13    1
    24    13   169    1
    25    73    14    1
    26    79    14    1
    27    75    15    1
    28    15    83    1
    29    16    76    1
    30    16   174    1
    31    17    78    1
    32    17    84    1
    33    18    79    1
    34    18    87    1
    35    80    19    1
    36    19   183    1
    37    81    20    1
    38    20   189    1
    39    82    21    1
    40    21   190    1
    41    85    22    1
    42    92    22    1
    43    23    83    2
    44    86    24    1
    45    24   194    1
    46    88    25    1
    47    25   196    1
    48    26    92    1
    49    26    97    1
    50    94    27    1
    51    27   203    1
    52    96    28    1
    53    28   206    1
    54    98    29    1
    55   103    29    1
    56    30   103    1
    57    30   107    1
    58    31   104    1
    59    31   110    1
    60   105    32    1
    61    32   214    1
    62   106    33    1
    63    33   220    1
    64   108    34    1
    65    34   221    1
    66    35   109    1
    67    35   222    1
    68    36    37    1
    69    36    39    1
    70    36    41    1
    71    36    50    1
    72    37    38    1
    73    37    46    1
    74    37   111    1
    75    38    40    1
    76    38    47    1
    77    38    55    1
    78    39    42    1
    79    39    48    1
    80    39    56    1
    81    40    43    1
    82    40    44    1
    83    40   112    1
    84    41    43    1
    85    41   113    1
    86    41   114    1
    87    42    45    1
    88    42    54    2
    89    43   115    1
    90    43   116    1
    91    44    53    1
    92    44    61    1
    93    44    62    1
    94    45    49    1
    95    45    57    1
    96    45   117    1
    97    46    54    1
    98    46   118    1
    99    46   119    1
   100    47    52    1
   101    47   120    1
   102    47   121    1
   103    48    51    1
   104    48   122    1
   105    48   123    1
   106    49    51    1
   107    49    58    1
   108    49    63    1
   109    50   124    1
   110    50   125    1
   111    50   126    1
   112    51   127    1
   113    51   128    1
   114    52    53    1
   115    52   129    1
   116    53   130    1
   117    54   131    1
   118    55   132    1
   119    55   133    1
   120    55   134    1
   121    56   135    1
   122    56   136    1
   123    57    59    1
   124    57   137    1
   125    57   138    1
   126    58    60    1
   127    58   139    1
   128    58   140    1
   129    59    60    1
   130    59    64    1
   131    59    65    1
   132    60   141    1
   133    60   142    1
   134    61   143    1
   135    61   144    1
   136    61   145    1
   137    64   146    1
   138    64   147    1
   139    64   148    1
   140    65   149    1
   141    65   150    1
   142    65   151    1
   143    66    67    1
   144    66   154    1
   145    67    69    1
   146    67   156    1
   147    68    71    1
   148    68   157    1
   149    69    72    1
   150    69   158    1
   151    70    72    1
   152    70    76    1
   153    70   159    1
   154    71    73    1
   155    71   160    1
   156    72   161    1
   157    73    75    1
   158    73   162    1
   159    74    75    1
   160    74    77    1
   161    74   164    1
   162    75   165    1
   163    76   166    1
   164    76   167    1
   165    77   170    1
   166    77   171    1
   167    77   172    1
   168    78    80    1
   169    78   173    1
   170    79    81    1
   171    79   175    1
   172    80    82    1
   173    80   176    1
   174    81    86    1
   175    81   177    1
   176    82    85    1
   177    82   178    1
   178    83    90    1
   179    84    85    1
   180    84    89    1
   181    84   179    1
   182    85   180    1
   183    86    88    1
   184    86   181    1
   185    87    88    1
   186    87    91    1
   187    87   182    1
   188    88   184    1
   189    89   185    1
   190    89   186    1
   191    89   187    1
   192    90    93    2
   193    90   188    1
   194    91   191    1
   195    91   192    1
   196    91   193    1
   197    92    94    1
   198    92   195    1
   199    93    95    1
   200    93   197    1
   201    94    96    1
   202    94   198    1
   203    95    99   ar
   204    95   100   ar
   205    96    98    1
   206    96   199    1
   207    97    98    1
   208    97   200    1
   209    97   201    1
   210    98   202    1
   211    99   101   ar
   212    99   204    1
   213   100   102   ar
   214   100   205    1
   215   101   104   ar
   216   101   207    1
   217   102   104   ar
   218   102   208    1
   219   103   105    1
   220   103   209    1
   221   105   106    1
   222   105   210    1
   223   106   108    1
   224   106   211    1
   225   107   108    1
   226   107   109    1
   227   107   212    1
   228   108   213    1
   229   109   215    1
   230   109   216    1
   231   110   217    1
   232   110   218    1
   233   110   219    1
