@<TRIPOS>MOLECULE
IMPHY007932
 38 42 0 0 0
SMALL
GASTEIGER

@<TRIPOS>ATOM
      1 O           3.7670    1.2248    0.0000 O.3     1  UNL1       -0.3757
      2 O           8.8411   -0.1116    0.0000 O.2     1  UNL1       -0.2702
      3 O           2.6079   -0.2343    0.0000 O.3     1  UNL1       -0.4526
      4 O           2.6079   -1.9107    0.0000 O.3     1  UNL1       -0.4526
      5 N           7.1256   -0.5725    0.0000 N.am    1  UNL1       -0.2601
      6 C           6.2596   -0.0725    0.0000 C.3     1  UNL1        0.0956
      7 C           5.2440    0.1298    0.0000 C.3     1  UNL1        0.0073
      8 C           6.4688    0.8993    0.0000 C.2     1  UNL1       -0.0144
      9 C           5.3935   -0.5725    0.0000 C.ar    1  UNL1       -0.0082
     10 C           4.7664    1.1912    0.0000 C.3     1  UNL1        0.0793
     11 C           5.3935   -1.5725    0.0000 C.ar    1  UNL1       -0.0146
     12 C           7.4575    1.0024    0.0000 C.2     1  UNL1        0.0062
     13 C           7.8626    0.0946    0.0000 C.2     1  UNL1        0.2446
     14 C           6.1666    1.8897    0.0000 C.2     1  UNL1       -0.0576
     15 C           5.3086    2.0371    0.0000 C.2     1  UNL1       -0.0552
     16 C           7.1256   -1.5725    0.0000 C.2     1  UNL1        0.0014
     17 C           4.4996   -0.0378    0.0000 C.ar    1  UNL1       -0.0100
     18 C           6.2596   -2.0725    0.0000 C.2     1  UNL1       -0.0400
     19 C           4.4996   -2.1072    0.0000 C.ar    1  UNL1       -0.0086
     20 C           3.5935   -0.5517    0.0000 C.ar    1  UNL1        0.1666
     21 C           3.5935   -1.5933    0.0000 C.ar    1  UNL1        0.1668
     22 C           3.2964    2.1072    0.0000 C.3     1  UNL1        0.0372
     23 C           2.0000   -1.0725    0.0000 C.3     1  UNL1        0.2332
     24 H           4.6385   -0.0033    0.0000 H       1  UNL1        0.0321
     25 H           5.2502   -0.4902    0.0000 H       1  UNL1        0.0321
     26 H           4.4781    1.7401    0.0000 H       1  UNL1        0.0641
     27 H           7.7675    1.5393    0.0000 H       1  UNL1        0.0673
     28 H           6.5765    2.3548    0.0000 H       1  UNL1        0.0619
     29 H           7.6625   -1.8825    0.0000 H       1  UNL1        0.0785
     30 H           5.0585    2.6044    0.0000 H       1  UNL1        0.0598
     31 H           4.5068    0.5821    0.0000 H       1  UNL1        0.0659
     32 H           6.2596   -2.6925    0.0000 H       1  UNL1        0.0636
     33 H           4.5068   -2.7271    0.0000 H       1  UNL1        0.0661
     34 H           1.5391   -0.6578    0.0000 H       1  UNL1        0.1166
     35 H           1.5391   -1.4872    0.0000 H       1  UNL1        0.1166
     36 H           3.8434    2.3989    0.0000 H       1  UNL1        0.0524
     37 H           3.0046    2.6542    0.0000 H       1  UNL1        0.0524
     38 H           2.7493    1.8154    0.0000 H       1  UNL1        0.0524
@<TRIPOS>BOND
     1    10     1    1
     2     1    22    1
     3     2    13    2
     4     3    20    1
     5     3    23    1
     6     4    21    1
     7     4    23    1
     8     5     6    1
     9     5    13   am
    10     5    16    1
    11     6     7    1
    12     6     8    1
    13     6     9    1
    14     7    10    1
    15     7    24    1
    16     7    25    1
    17     8    12    2
    18     8    14    1
    19     9    11   ar
    20     9    17   ar
    21    10    15    1
    22    10    26    1
    23    11    18    1
    24    11    19   ar
    25    12    13    1
    26    12    27    1
    27    14    15    2
    28    14    28    1
    29    15    30    1
    30    16    18    2
    31    16    29    1
    32    17    20   ar
    33    17    31    1
    34    18    32    1
    35    19    21   ar
    36    19    33    1
    37    20    21   ar
    38    22    36    1
    39    22    37    1
    40    22    38    1
    41    23    34    1
    42    23    35    1
