@<TRIPOS>MOLECULE
IMPHY009983
 39 40 0 0 0
SMALL
GASTEIGER

@<TRIPOS>ATOM
      1 C           5.4641    0.0000    0.0000 C.3     1  UNL1       -0.0080
      2 C           5.4641    1.0000    0.0000 C.3     1  UNL1       -0.0316
      3 C           4.5981   -0.5000    0.0000 C.3     1  UNL1       -0.0372
      4 C           4.5981    1.5000    0.0000 C.3     1  UNL1       -0.0489
      5 C           3.7320    0.0000    0.0000 C.3     1  UNL1       -0.0196
      6 C           3.7320    1.0000    0.0000 C.3     1  UNL1       -0.0462
      7 C           6.3580    1.5346    0.0000 C.3     1  UNL1       -0.0460
      8 C           6.3580   -0.5347    0.0000 C.2     1  UNL1       -0.0704
      9 C           5.4641   -1.0000    0.0000 C.3     1  UNL1       -0.0556
     10 C           7.2641    1.0208    0.0000 C.3     1  UNL1       -0.0342
     11 C           7.2641   -0.0208    0.0000 C.2     1  UNL1       -0.0845
     12 C           2.8660   -0.5000    0.0000 C.2     1  UNL1       -0.0766
     13 C           6.3465   -1.5346    0.0000 C.3     1  UNL1       -0.0433
     14 C           2.0000    0.0000    0.0000 C.3     1  UNL1       -0.0438
     15 C           2.8660   -1.5000    0.0000 C.2     1  UNL1       -0.0994
     16 H           5.4576    1.8499    0.0000 H       1  UNL1        0.0309
     17 H           4.1996   -0.9750    0.0000 H       1  UNL1        0.0279
     18 H           4.9966   -0.9750    0.0000 H       1  UNL1        0.0279
     19 H           4.9966    1.9749    0.0000 H       1  UNL1        0.0268
     20 H           4.1996    1.9749    0.0000 H       1  UNL1        0.0268
     21 H           3.7320   -0.8500    0.0000 H       1  UNL1        0.0346
     22 H           3.5200    1.5826    0.0000 H       1  UNL1        0.0271
     23 H           3.1215    0.8923    0.0000 H       1  UNL1        0.0271
     24 H           6.7517    2.0136    0.0000 H       1  UNL1        0.0271
     25 H           5.9534    2.0044    0.0000 H       1  UNL1        0.0271
     26 H           4.8441   -1.0000    0.0000 H       1  UNL1        0.0238
     27 H           5.4641   -1.6200    0.0000 H       1  UNL1        0.0238
     28 H           6.0841   -1.0000    0.0000 H       1  UNL1        0.0238
     29 H           7.8750    0.9147    0.0000 H       1  UNL1        0.0307
     30 H           7.4732    1.6045    0.0000 H       1  UNL1        0.0307
     31 H           7.7998   -0.3329    0.0000 H       1  UNL1        0.0572
     32 H           5.7265   -1.5275    0.0000 H       1  UNL1        0.0275
     33 H           6.3393   -2.1546    0.0000 H       1  UNL1        0.0275
     34 H           6.9664   -1.5418    0.0000 H       1  UNL1        0.0275
     35 H           2.3100    0.5369    0.0000 H       1  UNL1        0.0274
     36 H           1.4631    0.3100    0.0000 H       1  UNL1        0.0274
     37 H           1.6900   -0.5370    0.0000 H       1  UNL1        0.0274
     38 H           2.3291   -1.8100    0.0000 H       1  UNL1        0.0534
     39 H           3.4030   -1.8100    0.0000 H       1  UNL1        0.0534
@<TRIPOS>BOND
     1     1     2    1
     2     1     3    1
     3     1     8    1
     4     1     9    1
     5     2     4    1
     6     2     7    1
     7     2    16    1
     8     3     5    1
     9     3    17    1
    10     3    18    1
    11     4     6    1
    12     4    19    1
    13     4    20    1
    14     5     6    1
    15     5    12    1
    16     5    21    1
    17     6    22    1
    18     6    23    1
    19     7    10    1
    20     7    24    1
    21     7    25    1
    22     8    11    2
    23     8    13    1
    24     9    26    1
    25     9    27    1
    26     9    28    1
    27    10    11    1
    28    10    29    1
    29    10    30    1
    30    11    31    1
    31    12    14    1
    32    12    15    2
    33    13    32    1
    34    13    33    1
    35    13    34    1
    36    14    35    1
    37    14    36    1
    38    14    37    1
    39    15    38    1
    40    15    39    1
