@<TRIPOS>MOLECULE
IMPHY009416
 38 41 0 0 0
SMALL
GASTEIGER

@<TRIPOS>ATOM
      1 O           5.1804    1.3036    0.0000 O.3     1  UNL1       -0.5029
      2 O           6.9464    2.3414    0.0000 O.3     1  UNL1       -0.4914
      3 O           2.5381   -0.2037    0.0000 O.3     1  UNL1       -0.5067
      4 N           7.7925   -2.2248    0.0000 N.3     1  UNL1       -0.3087
      5 C           6.9343   -1.7278    0.0000 C.3     1  UNL1        0.0378
      6 C           6.9343   -0.7278    0.0000 C.ar    1  UNL1       -0.0155
      7 C           6.0682   -2.2278    0.0000 C.3     1  UNL1       -0.0075
      8 C           7.8443   -0.2210    0.0000 C.ar    1  UNL1       -0.0372
      9 C           6.0682   -0.2278    0.0000 C.ar    1  UNL1        0.0325
     10 C           8.6836   -0.7492    0.0000 C.3     1  UNL1       -0.0146
     11 C           8.6580   -1.7406    0.0000 C.3     1  UNL1        0.0004
     12 C           5.2022   -1.7278    0.0000 C.ar    1  UNL1       -0.0375
     13 C           5.2022   -0.7278    0.0000 C.ar    1  UNL1       -0.0073
     14 C           6.0522    0.8137    0.0000 C.ar    1  UNL1        0.1666
     15 C           7.8523    0.8206    0.0000 C.ar    1  UNL1       -0.0127
     16 C           6.9502    1.3414    0.0000 C.ar    1  UNL1        0.1622
     17 C           4.3083   -2.2625    0.0000 C.ar    1  UNL1       -0.0545
     18 C           4.3083   -0.1932    0.0000 C.ar    1  UNL1       -0.0121
     19 C           3.4022   -0.7070    0.0000 C.ar    1  UNL1        0.1175
     20 C           3.4022   -1.7486    0.0000 C.ar    1  UNL1       -0.0199
     21 C           7.8105    2.8448    0.0000 C.3     1  UNL1        0.0790
     22 H           6.9337   -2.5778    0.0000 H       1  UNL1        0.0513
     23 H           5.6697   -2.7028    0.0000 H       1  UNL1        0.0332
     24 H           6.4668   -2.7028    0.0000 H       1  UNL1        0.0332
     25 H           9.2907   -0.8751    0.0000 H       1  UNL1        0.0326
     26 H           8.9154   -0.1742    0.0000 H       1  UNL1        0.0326
     27 H           7.7879   -2.8448    0.0000 H       1  UNL1        0.1225
     28 H           8.8597   -2.3268    0.0000 H       1  UNL1        0.0427
     29 H           9.2708   -1.6462    0.0000 H       1  UNL1        0.0427
     30 H           8.3904    1.1285    0.0000 H       1  UNL1        0.0658
     31 H           4.3154   -2.8825    0.0000 H       1  UNL1        0.0622
     32 H           4.3154    0.4268    0.0000 H       1  UNL1        0.0660
     33 H           2.8665   -2.0607    0.0000 H       1  UNL1        0.0654
     34 H           5.1733    1.9236    0.0000 H       1  UNL1        0.2923
     35 H           2.0000   -0.5116    0.0000 H       1  UNL1        0.2921
     36 H           8.1225    2.3090    0.0000 H       1  UNL1        0.0660
     37 H           8.3462    3.1568    0.0000 H       1  UNL1        0.0660
     38 H           7.4984    3.3805    0.0000 H       1  UNL1        0.0660
@<TRIPOS>BOND
     1     1    14    1
     2     1    34    1
     3     2    16    1
     4     2    21    1
     5     3    19    1
     6     3    35    1
     7     4     5    1
     8     4    11    1
     9     4    27    1
    10     5     6    1
    11     5     7    1
    12     5    22    1
    13     6     8   ar
    14     6     9   ar
    15     7    12    1
    16     7    23    1
    17     7    24    1
    18     8    10    1
    19     8    15   ar
    20     9    13    1
    21     9    14   ar
    22    10    11    1
    23    10    25    1
    24    10    26    1
    25    11    28    1
    26    11    29    1
    27    12    13   ar
    28    12    17   ar
    29    13    18   ar
    30    14    16   ar
    31    15    16   ar
    32    15    30    1
    33    17    20   ar
    34    17    31    1
    35    18    19   ar
    36    18    32    1
    37    19    20   ar
    38    20    33    1
    39    21    36    1
    40    21    37    1
    41    21    38    1
