@<TRIPOS>MOLECULE
IMPHY002989
 76 80 0 0 0
SMALL
GASTEIGER

@<TRIPOS>ATOM
      1 O           6.3301   -4.3160    0.0000 O.3     1  UNL1       -0.3401
      2 O           5.4641   -1.8160    0.0000 O.3     1  UNL1       -0.3313
      3 O           4.5981   -4.3160    0.0000 O.3     1  UNL1       -0.3431
      4 O           8.0622   -3.3160    0.0000 O.3     1  UNL1       -0.3863
      5 O           8.0622   -1.3160    0.0000 O.3     1  UNL1       -0.3829
      6 O           6.3301   -0.3160    0.0000 O.3     1  UNL1       -0.4606
      7 O           6.3301   -6.3160    0.0000 O.3     1  UNL1       -0.3841
      8 O           4.5981   -7.3160    0.0000 O.3     1  UNL1       -0.3864
      9 O           2.8660   -6.3160    0.0000 O.3     1  UNL1       -0.3866
     10 O           3.7320   -2.8160    0.0000 O.3     1  UNL1       -0.3924
     11 O           4.3889    2.6558    0.0000 O.3     1  UNL1       -0.4512
     12 O           2.8660   -0.3160    0.0000 O.3     1  UNL1       -0.4942
     13 O           2.0165    1.6449    0.0000 O.2     1  UNL1       -0.2831
     14 O           2.9002    7.0890    0.0000 O.3     1  UNL1       -0.5032
     15 O           5.9002    5.3570    0.0000 O.3     1  UNL1       -0.5032
     16 O           4.9002    7.0890    0.0000 O.3     1  UNL1       -0.5009
     17 C           6.3301   -3.3160    0.0000 C.3     1  UNL1        0.1185
     18 C           7.1962   -2.8160    0.0000 C.3     1  UNL1        0.1155
     19 C           5.4641   -2.8160    0.0000 C.3     1  UNL1        0.1144
     20 C           5.4641   -4.8160    0.0000 C.3     1  UNL1        0.1883
     21 C           7.1962   -1.8160    0.0000 C.3     1  UNL1        0.1454
     22 C           5.4641   -5.8160    0.0000 C.3     1  UNL1        0.1341
     23 C           4.5981   -6.3160    0.0000 C.3     1  UNL1        0.1140
     24 C           3.7320   -5.8160    0.0000 C.3     1  UNL1        0.1095
     25 C           6.3301   -1.3160    0.0000 C.3     1  UNL1        0.2308
     26 C           3.7320   -4.8160    0.0000 C.3     1  UNL1        0.0873
     27 C           4.5981   -3.3160    0.0000 C.3     1  UNL1        0.0731
     28 C           2.8660   -4.3160    0.0000 C.3     1  UNL1       -0.0361
     29 C           5.4641    0.1840    0.0000 C.ar    1  UNL1        0.1310
     30 C           5.4641    1.1840    0.0000 C.ar    1  UNL1        0.0235
     31 C           4.5981   -0.3160    0.0000 C.ar    1  UNL1        0.0228
     32 C           4.5981    1.6840    0.0000 C.ar    1  UNL1        0.1465
     33 C           3.7320    0.1840    0.0000 C.ar    1  UNL1        0.1380
     34 C           3.7320    1.1840    0.0000 C.ar    1  UNL1        0.1093
     35 C           2.9950    1.8511    0.0000 C.2     1  UNL1        0.2350
     36 C           3.4002    2.7589    0.0000 C.2     1  UNL1        0.1763
     37 C           2.9002    3.6249    0.0000 C.2     1  UNL1       -0.0081
     38 C           2.0000    0.1840    0.0000 C.3     1  UNL1        0.0788
     39 C           3.4002    4.4910    0.0000 C.ar    1  UNL1       -0.0143
     40 C           4.4002    4.4910    0.0000 C.ar    1  UNL1       -0.0090
     41 C           2.9002    5.3570    0.0000 C.ar    1  UNL1       -0.0090
     42 C           3.4002    6.2230    0.0000 C.ar    1  UNL1        0.1625
     43 C           4.9002    5.3570    0.0000 C.ar    1  UNL1        0.1625
     44 C           4.4002    6.2230    0.0000 C.ar    1  UNL1        0.2006
     45 H           6.8671   -3.6260    0.0000 H       1  UNL1        0.0651
     46 H           7.7331   -2.5060    0.0000 H       1  UNL1        0.0648
     47 H           4.9272   -2.5060    0.0000 H       1  UNL1        0.0647
     48 H           5.4641   -4.1960    0.0000 H       1  UNL1        0.0938
     49 H           7.1962   -1.1960    0.0000 H       1  UNL1        0.0683
     50 H           5.4641   -6.4360    0.0000 H       1  UNL1        0.0671
     51 H           4.0611   -6.6260    0.0000 H       1  UNL1        0.0648
     52 H           3.1951   -5.5060    0.0000 H       1  UNL1        0.0646
     53 H           5.7932   -1.0060    0.0000 H       1  UNL1        0.1084
     54 H           3.7320   -4.1960    0.0000 H       1  UNL1        0.0621
     55 H           4.1996   -3.7909    0.0000 H       1  UNL1        0.0584
     56 H           4.9966   -3.7909    0.0000 H       1  UNL1        0.0584
     57 H           3.1760   -3.7790    0.0000 H       1  UNL1        0.0255
     58 H           2.3291   -4.0060    0.0000 H       1  UNL1        0.0255
     59 H           2.5560   -4.8529    0.0000 H       1  UNL1        0.0255
     60 H           8.5991   -3.0060    0.0000 H       1  UNL1        0.2100
     61 H           8.0622   -0.6960    0.0000 H       1  UNL1        0.2102
     62 H           6.3301   -6.9360    0.0000 H       1  UNL1        0.2101
     63 H           4.0611   -7.6260    0.0000 H       1  UNL1        0.2100
     64 H           2.3291   -6.0060    0.0000 H       1  UNL1        0.2100
     65 H           3.1951   -3.1260    0.0000 H       1  UNL1        0.2095
     66 H           6.0010    1.4940    0.0000 H       1  UNL1        0.0691
     67 H           4.5981   -0.9360    0.0000 H       1  UNL1        0.0691
     68 H           2.2802    3.6249    0.0000 H       1  UNL1        0.0661
     69 H           2.3100    0.7210    0.0000 H       1  UNL1        0.0660
     70 H           1.4631    0.4940    0.0000 H       1  UNL1        0.0660
     71 H           1.6900   -0.3529    0.0000 H       1  UNL1        0.0660
     72 H           4.7101    3.9540    0.0000 H       1  UNL1        0.0661
     73 H           2.2802    5.3570    0.0000 H       1  UNL1        0.0661
     74 H           2.2802    7.0890    0.0000 H       1  UNL1        0.2923
     75 H           6.2101    5.8939    0.0000 H       1  UNL1        0.2923
     76 H           4.5902    7.6260    0.0000 H       1  UNL1        0.2924
@<TRIPOS>BOND
     1     1    17    1
     2     1    20    1
     3     2    19    1
     4     2    25    1
     5     3    20    1
     6     3    26    1
     7     4    18    1
     8     4    60    1
     9     5    21    1
    10     5    61    1
    11     6    25    1
    12     6    29    1
    13     7    22    1
    14     7    62    1
    15     8    23    1
    16     8    63    1
    17     9    24    1
    18     9    64    1
    19    10    27    1
    20    10    65    1
    21    11    32    1
    22    11    36    1
    23    12    33    1
    24    12    38    1
    25    13    35    2
    26    14    42    1
    27    14    74    1
    28    15    43    1
    29    15    75    1
    30    16    44    1
    31    16    76    1
    32    17    18    1
    33    17    19    1
    34    17    45    1
    35    18    21    1
    36    18    46    1
    37    19    27    1
    38    19    47    1
    39    20    22    1
    40    20    48    1
    41    21    25    1
    42    21    49    1
    43    22    23    1
    44    22    50    1
    45    23    24    1
    46    23    51    1
    47    24    26    1
    48    24    52    1
    49    25    53    1
    50    26    28    1
    51    26    54    1
    52    27    55    1
    53    27    56    1
    54    28    57    1
    55    28    58    1
    56    28    59    1
    57    29    30   ar
    58    29    31   ar
    59    30    32   ar
    60    30    66    1
    61    31    33   ar
    62    31    67    1
    63    32    34   ar
    64    33    34   ar
    65    34    35    1
    66    35    36    1
    67    36    37    2
    68    37    39    1
    69    37    68    1
    70    38    69    1
    71    38    70    1
    72    38    71    1
    73    39    40   ar
    74    39    41   ar
    75    40    43   ar
    76    40    72    1
    77    41    42   ar
    78    41    73    1
    79    42    44   ar
    80    43    44   ar
