@<TRIPOS>MOLECULE
IMPHY017009
 30 29 0 0 0
SMALL
GASTEIGER

@<TRIPOS>ATOM
      1 O           2.5369    1.0000    0.0000 O.3     1  UNL1       -0.3918
      2 C           5.1350    0.5000    0.0000 C.3     1  UNL1       -0.0507
      3 C           4.2690    1.0000    0.0000 C.3     1  UNL1       -0.0269
      4 C           6.0010    1.0000    0.0000 C.3     1  UNL1       -0.0530
      5 C           3.4030    0.5000    0.0000 C.3     1  UNL1        0.0550
      6 C           6.8671    0.5000    0.0000 C.3     1  UNL1       -0.0533
      7 C           3.4030   -0.5000    0.0000 C.3     1  UNL1       -0.0297
      8 C           7.7331    1.0000    0.0000 C.3     1  UNL1       -0.0559
      9 C           2.5369   -1.0000    0.0000 C.3     1  UNL1       -0.0629
     10 C           8.5991    0.5000    0.0000 C.3     1  UNL1       -0.0653
     11 H           4.7365    0.0251    0.0000 H       1  UNL1        0.0266
     12 H           5.5335    0.0251    0.0000 H       1  UNL1        0.0266
     13 H           4.6675    1.4750    0.0000 H       1  UNL1        0.0290
     14 H           3.8705    1.4750    0.0000 H       1  UNL1        0.0290
     15 H           6.3996    1.4750    0.0000 H       1  UNL1        0.0265
     16 H           5.6025    1.4750    0.0000 H       1  UNL1        0.0265
     17 H           3.4030    1.3500    0.0000 H       1  UNL1        0.0593
     18 H           6.4685    0.0251    0.0000 H       1  UNL1        0.0265
     19 H           7.2656    0.0251    0.0000 H       1  UNL1        0.0265
     20 H           3.6150   -1.0826    0.0000 H       1  UNL1        0.0287
     21 H           4.0135   -0.3923    0.0000 H       1  UNL1        0.0287
     22 H           8.1316    1.4750    0.0000 H       1  UNL1        0.0263
     23 H           7.3346    1.4750    0.0000 H       1  UNL1        0.0263
     24 H           2.2269   -0.4631    0.0000 H       1  UNL1        0.0231
     25 H           2.0000   -1.3100    0.0000 H       1  UNL1        0.0231
     26 H           2.8469   -1.5369    0.0000 H       1  UNL1        0.0231
     27 H           8.2891   -0.0369    0.0000 H       1  UNL1        0.0230
     28 H           9.1360    0.1900    0.0000 H       1  UNL1        0.0230
     29 H           8.9091    1.0369    0.0000 H       1  UNL1        0.0230
     30 H           2.0000    0.6900    0.0000 H       1  UNL1        0.2098
@<TRIPOS>BOND
     1     1     5    1
     2     1    30    1
     3     2     3    1
     4     2     4    1
     5     2    11    1
     6     2    12    1
     7     3     5    1
     8     3    13    1
     9     3    14    1
    10     4     6    1
    11     4    15    1
    12     4    16    1
    13     5     7    1
    14     5    17    1
    15     6     8    1
    16     6    18    1
    17     6    19    1
    18     7     9    1
    19     7    20    1
    20     7    21    1
    21     8    10    1
    22     8    22    1
    23     8    23    1
    24     9    24    1
    25     9    25    1
    26     9    26    1
    27    10    27    1
    28    10    28    1
    29    10    29    1
