@<TRIPOS>MOLECULE
IMPHY004561
 60 62 0 0 0
SMALL
GASTEIGER

@<TRIPOS>ATOM
      1 O           9.7942   -0.8450    0.0000 O.3     1  UNL1       -0.3394
      2 O           8.0622   -2.8450    0.0000 O.3     1  UNL1       -0.4529
      3 O          11.5263   -0.8450    0.0000 O.3     1  UNL1       -0.3484
      4 O           9.7942   -3.8450    0.0000 O.3     1  UNL1       -0.3853
      5 O          11.5263   -2.8450    0.0000 O.3     1  UNL1       -0.3841
      6 O           8.0622    0.1550    0.0000 O.3     1  UNL1       -0.3923
      7 O           7.1962   -1.3450    0.0000 O.2     1  UNL1       -0.2456
      8 O          14.1244    3.6550    0.0000 O.3     1  UNL1       -0.5033
      9 O          12.3923    4.6550    0.0000 O.3     1  UNL1       -0.5033
     10 O           2.0000   -2.3450    0.0000 O.3     1  UNL1       -0.5033
     11 O           2.0000   -4.3450    0.0000 O.3     1  UNL1       -0.5033
     12 C           8.9282   -2.3450    0.0000 C.3     1  UNL1        0.1598
     13 C           9.7942   -2.8450    0.0000 C.3     1  UNL1        0.1251
     14 C           8.9282   -1.3450    0.0000 C.3     1  UNL1        0.1240
     15 C          10.6603   -2.3450    0.0000 C.3     1  UNL1        0.1352
     16 C          10.6603   -1.3450    0.0000 C.3     1  UNL1        0.1880
     17 C           8.0622   -0.8450    0.0000 C.3     1  UNL1        0.0741
     18 C          11.5263    0.1550    0.0000 C.3     1  UNL1        0.0547
     19 C          12.3923    0.6550    0.0000 C.3     1  UNL1       -0.0039
     20 C           7.1962   -2.3450    0.0000 C.2     1  UNL1        0.3324
     21 C          12.3923    1.6550    0.0000 C.ar    1  UNL1       -0.0415
     22 C           6.3301   -2.8450    0.0000 C.2     1  UNL1        0.0231
     23 C          13.2583    2.1550    0.0000 C.ar    1  UNL1       -0.0133
     24 C          11.5263    2.1550    0.0000 C.ar    1  UNL1       -0.0548
     25 C           5.4641   -2.3450    0.0000 C.2     1  UNL1       -0.0477
     26 C          13.2583    3.1550    0.0000 C.ar    1  UNL1        0.1585
     27 C          11.5263    3.1550    0.0000 C.ar    1  UNL1       -0.0163
     28 C          12.3923    3.6550    0.0000 C.ar    1  UNL1        0.1582
     29 C           4.5981   -2.8450    0.0000 C.ar    1  UNL1       -0.0211
     30 C           3.7320   -2.3450    0.0000 C.ar    1  UNL1       -0.0094
     31 C           4.5981   -3.8450    0.0000 C.ar    1  UNL1       -0.0509
     32 C           2.8660   -2.8450    0.0000 C.ar    1  UNL1        0.1588
     33 C           3.7320   -4.3450    0.0000 C.ar    1  UNL1       -0.0160
     34 C           2.8660   -3.8450    0.0000 C.ar    1  UNL1        0.1582
     35 H           8.9282   -2.9650    0.0000 H       1  UNL1        0.0788
     36 H          10.3312   -3.1550    0.0000 H       1  UNL1        0.0659
     37 H           8.9282   -0.7250    0.0000 H       1  UNL1        0.0658
     38 H          11.1972   -2.0350    0.0000 H       1  UNL1        0.0671
     39 H          10.6603   -0.7250    0.0000 H       1  UNL1        0.0937
     40 H           7.4516   -0.7373    0.0000 H       1  UNL1        0.0584
     41 H           7.8501   -1.4276    0.0000 H       1  UNL1        0.0584
     42 H          10.3312   -4.1550    0.0000 H       1  UNL1        0.2101
     43 H          12.0632   -2.5350    0.0000 H       1  UNL1        0.2101
     44 H          11.3142    0.7376    0.0000 H       1  UNL1        0.0564
     45 H          10.9157    0.0473    0.0000 H       1  UNL1        0.0564
     46 H          12.6044    0.0724    0.0000 H       1  UNL1        0.0335
     47 H          13.0029    0.7627    0.0000 H       1  UNL1        0.0335
     48 H           7.5252    0.4650    0.0000 H       1  UNL1        0.2095
     49 H           6.3301   -3.4650    0.0000 H       1  UNL1        0.0689
     50 H          13.7953    1.8450    0.0000 H       1  UNL1        0.0658
     51 H          10.9893    1.8450    0.0000 H       1  UNL1        0.0621
     52 H           5.4641   -1.7250    0.0000 H       1  UNL1        0.0626
     53 H          10.9893    3.4650    0.0000 H       1  UNL1        0.0655
     54 H           3.7320   -1.7250    0.0000 H       1  UNL1        0.0661
     55 H           5.1350   -4.1550    0.0000 H       1  UNL1        0.0625
     56 H          14.6613    3.3450    0.0000 H       1  UNL1        0.2923
     57 H          11.8554    4.9650    0.0000 H       1  UNL1        0.2923
     58 H           3.7320   -4.9650    0.0000 H       1  UNL1        0.0655
     59 H           2.0000   -1.7250    0.0000 H       1  UNL1        0.2923
     60 H           2.0000   -4.9650    0.0000 H       1  UNL1        0.2923
@<TRIPOS>BOND
     1     1    14    1
     2     1    16    1
     3    12     2    1
     4     2    20    1
     5    16     3    1
     6     3    18    1
     7    13     4    1
     8     4    42    1
     9    15     5    1
    10     5    43    1
    11     6    17    1
    12     6    48    1
    13     7    20    2
    14     8    26    1
    15     8    56    1
    16     9    28    1
    17     9    57    1
    18    10    32    1
    19    10    59    1
    20    11    34    1
    21    11    60    1
    22    12    13    1
    23    12    14    1
    24    12    35    1
    25    13    15    1
    26    13    36    1
    27    14    17    1
    28    14    37    1
    29    15    16    1
    30    15    38    1
    31    16    39    1
    32    17    40    1
    33    17    41    1
    34    18    19    1
    35    18    44    1
    36    18    45    1
    37    19    21    1
    38    19    46    1
    39    19    47    1
    40    20    22    1
    41    21    23   ar
    42    21    24   ar
    43    22    25    2
    44    22    49    1
    45    23    26   ar
    46    23    50    1
    47    24    27   ar
    48    24    51    1
    49    25    29    1
    50    25    52    1
    51    26    28   ar
    52    27    28   ar
    53    27    53    1
    54    29    30   ar
    55    29    31   ar
    56    30    32   ar
    57    30    54    1
    58    31    33   ar
    59    31    55    1
    60    32    34   ar
    61    33    34   ar
    62    33    58    1
