@<TRIPOS>MOLECULE
IMPHY007114
 19 18 0 0 0
SMALL
GASTEIGER

@<TRIPOS>ATOM
      1 P1          3.4030   -0.4050    0.0000 P.3     1  <1>         0.4724
      2 O1          4.2690    0.0950    0.0000 O.3     1  <1>        -0.2847
      3 O2          2.5369   -0.9050    0.0000 O.3     1  <1>        -0.3026
      4 O3          2.9030    0.4610    0.0000 O.3     1  <1>        -0.3026
      5 O4          7.7331    0.0950    0.0000 O.3     1  <1>        -0.4795
      6 O5          3.9030   -1.2710    0.0000 O.2     1  <1>        -0.2275
      7 O6          6.8671   -1.4050    0.0000 O.2     1  <1>        -0.2492
      8 N1          6.0010    1.0950    0.0000 N.3     1  <1>        -0.3166
      9 C1          6.0010    0.0950    0.0000 C.3     1  <1>         0.1273
     10 C2          5.1350   -0.4050    0.0000 C.3     1  <1>         0.0846
     11 C3          6.8671   -0.4050    0.0000 C.2     1  <1>         0.3240
     12 H1          6.5380    0.4050    0.0000 H       1  <1>         0.0597
     13 H2          4.7365   -0.8799    0.0000 H       1  <1>         0.0587
     14 H3          5.5335   -0.8799    0.0000 H       1  <1>         0.0587
     15 H4          6.5380    1.4050    0.0000 H       1  <1>         0.1190
     16 H5          5.4641    1.4050    0.0000 H       1  <1>         0.1190
     17 H6          2.0000   -0.5950    0.0000 H       1  <1>         0.2220
     18 H7          3.2130    0.9980    0.0000 H       1  <1>         0.2220
     19 H8          8.2700   -0.2150    0.0000 H       1  <1>         0.2951
@<TRIPOS>BOND
     1     1     2    1
     2     1     3    1
     3     1     4    1
     4     1     6    2
     5     2    10    1
     6     3    17    1
     7     4    18    1
     8     5    11    1
     9     5    19    1
    10     7    11    2
    11     9     8    1
    12     8    15    1
    13     8    16    1
    14     9    10    1
    15     9    11    1
    16     9    12    1
    17    10    13    1
    18    10    14    1
