@<TRIPOS>MOLECULE
IMPHY016810
 49 48 0 0 0
SMALL
GASTEIGER

@<TRIPOS>ATOM
      1 N           2.5369   -0.0600    0.0000 N.3     1  UNL1       -0.3300
      2 C           9.4651   -0.0600    0.0000 C.3     1  UNL1       -0.0531
      3 C           8.5991   -0.5600    0.0000 C.3     1  UNL1       -0.0531
      4 C          10.3312   -0.5600    0.0000 C.3     1  UNL1       -0.0531
      5 C           7.7331   -0.0600    0.0000 C.3     1  UNL1       -0.0531
      6 C          11.1972   -0.0600    0.0000 C.3     1  UNL1       -0.0531
      7 C           6.8671   -0.5600    0.0000 C.3     1  UNL1       -0.0531
      8 C          12.0632   -0.5600    0.0000 C.3     1  UNL1       -0.0531
      9 C           6.0010   -0.0600    0.0000 C.3     1  UNL1       -0.0530
     10 C          12.9292   -0.0600    0.0000 C.3     1  UNL1       -0.0531
     11 C           5.1350   -0.5600    0.0000 C.3     1  UNL1       -0.0519
     12 C          13.7953   -0.5600    0.0000 C.3     1  UNL1       -0.0533
     13 C           4.2690   -0.0600    0.0000 C.3     1  UNL1       -0.0406
     14 C          14.6613   -0.0600    0.0000 C.3     1  UNL1       -0.0559
     15 C           3.4030   -0.5600    0.0000 C.3     1  UNL1       -0.0069
     16 C          15.5273   -0.5600    0.0000 C.3     1  UNL1       -0.0653
     17 H           9.8637    0.4149    0.0000 H       1  UNL1        0.0265
     18 H           9.0666    0.4149    0.0000 H       1  UNL1        0.0265
     19 H           8.2006   -1.0350    0.0000 H       1  UNL1        0.0265
     20 H           8.9976   -1.0350    0.0000 H       1  UNL1        0.0265
     21 H           9.9326   -1.0350    0.0000 H       1  UNL1        0.0265
     22 H          10.7297   -1.0350    0.0000 H       1  UNL1        0.0265
     23 H           8.1316    0.4149    0.0000 H       1  UNL1        0.0265
     24 H           7.3346    0.4149    0.0000 H       1  UNL1        0.0265
     25 H          11.5957    0.4149    0.0000 H       1  UNL1        0.0265
     26 H          10.7987    0.4149    0.0000 H       1  UNL1        0.0265
     27 H           6.4685   -1.0350    0.0000 H       1  UNL1        0.0265
     28 H           7.2656   -1.0350    0.0000 H       1  UNL1        0.0265
     29 H          11.6647   -1.0350    0.0000 H       1  UNL1        0.0265
     30 H          12.4617   -1.0350    0.0000 H       1  UNL1        0.0265
     31 H           6.3996    0.4149    0.0000 H       1  UNL1        0.0265
     32 H           5.6025    0.4149    0.0000 H       1  UNL1        0.0265
     33 H          13.3278    0.4149    0.0000 H       1  UNL1        0.0265
     34 H          12.5307    0.4149    0.0000 H       1  UNL1        0.0265
     35 H           4.7365   -1.0350    0.0000 H       1  UNL1        0.0266
     36 H           5.5335   -1.0350    0.0000 H       1  UNL1        0.0266
     37 H          13.3967   -1.0350    0.0000 H       1  UNL1        0.0265
     38 H          14.1938   -1.0350    0.0000 H       1  UNL1        0.0265
     39 H           4.6675    0.4149    0.0000 H       1  UNL1        0.0277
     40 H           3.8705    0.4149    0.0000 H       1  UNL1        0.0277
     41 H          15.0598    0.4149    0.0000 H       1  UNL1        0.0263
     42 H          14.2628    0.4149    0.0000 H       1  UNL1        0.0263
     43 H           3.0044   -1.0350    0.0000 H       1  UNL1        0.0422
     44 H           3.8015   -1.0350    0.0000 H       1  UNL1        0.0422
     45 H          15.2173   -1.0969    0.0000 H       1  UNL1        0.0230
     46 H          16.0643   -0.8700    0.0000 H       1  UNL1        0.0230
     47 H          15.8373   -0.0231    0.0000 H       1  UNL1        0.0230
     48 H           2.0000   -0.3700    0.0000 H       1  UNL1        0.1182
     49 H           2.5369    0.5600    0.0000 H       1  UNL1        0.1182
@<TRIPOS>BOND
     1     1    15    1
     2     1    48    1
     3     1    49    1
     4     2     3    1
     5     2     4    1
     6     2    17    1
     7     2    18    1
     8     3     5    1
     9     3    19    1
    10     3    20    1
    11     4     6    1
    12     4    21    1
    13     4    22    1
    14     5     7    1
    15     5    23    1
    16     5    24    1
    17     6     8    1
    18     6    25    1
    19     6    26    1
    20     7     9    1
    21     7    27    1
    22     7    28    1
    23     8    10    1
    24     8    29    1
    25     8    30    1
    26     9    11    1
    27     9    31    1
    28     9    32    1
    29    10    12    1
    30    10    33    1
    31    10    34    1
    32    11    13    1
    33    11    35    1
    34    11    36    1
    35    12    14    1
    36    12    37    1
    37    12    38    1
    38    13    15    1
    39    13    39    1
    40    13    40    1
    41    14    16    1
    42    14    41    1
    43    14    42    1
    44    15    43    1
    45    15    44    1
    46    16    45    1
    47    16    46    1
    48    16    47    1
