@<TRIPOS>MOLECULE
IMPHY001526
 64 67 0 0 0
SMALL
GASTEIGER

@<TRIPOS>ATOM
      1 O           8.8709    3.0342    0.0000 O.3     1  UNL1       -0.4605
      2 O           6.8671   -0.9493    0.0000 O.3     1  UNL1       -0.3449
      3 O           6.0599    3.6395    0.0000 O.3     1  UNL1       -0.3947
      4 O          10.3707    3.9860    0.0000 O.2     1  UNL1       -0.2505
      5 O           5.1350   -0.9493    0.0000 O.3     1  UNL1       -0.3405
      6 O           6.8671   -2.9493    0.0000 O.3     1  UNL1       -0.3841
      7 O           5.1350   -3.9493    0.0000 O.3     1  UNL1       -0.3864
      8 O           3.4030   -2.9493    0.0000 O.3     1  UNL1       -0.3865
      9 O           2.5369   -1.4493    0.0000 O.3     1  UNL1       -0.3924
     10 C           7.7671    0.5750    0.0000 C.3     1  UNL1        0.0008
     11 C           7.7787    1.5749    0.0000 C.3     1  UNL1        0.0091
     12 C           8.6504    2.0648    0.0000 C.3     1  UNL1        0.1103
     13 C           9.5106    1.5549    0.0000 C.3     1  UNL1        0.0091
     14 C           6.8910    2.1199    0.0000 C.3     1  UNL1       -0.0110
     15 C           8.6273    0.0650    0.0000 C.3     1  UNL1       -0.0445
     16 C           6.8671    0.0507    0.0000 C.3     1  UNL1        0.0675
     17 C           9.4991    0.5549    0.0000 C.3     1  UNL1       -0.0455
     18 C           5.9790    1.6165    0.0000 C.3     1  UNL1       -0.0454
     19 C           5.9670    0.5750    0.0000 C.3     1  UNL1       -0.0256
     20 C          10.2553    2.2134    0.0000 C.3     1  UNL1        0.0598
     21 C           7.7556   -0.4250    0.0000 C.3     1  UNL1       -0.0568
     22 C           6.9141    3.1196    0.0000 C.3     1  UNL1        0.0474
     23 C           9.8607    3.1258    0.0000 C.2     1  UNL1        0.3106
     24 C          11.2314    1.9959    0.0000 C.3     1  UNL1       -0.0519
     25 C           6.0010   -1.4493    0.0000 C.3     1  UNL1        0.1882
     26 C           6.0010   -2.4493    0.0000 C.3     1  UNL1        0.1341
     27 C           5.1350   -2.9493    0.0000 C.3     1  UNL1        0.1141
     28 C           4.2690   -1.4493    0.0000 C.3     1  UNL1        0.1130
     29 C           4.2690   -2.4493    0.0000 C.3     1  UNL1        0.1119
     30 C           3.4030   -0.9493    0.0000 C.3     1  UNL1        0.0730
     31 H           7.7951    2.4247    0.0000 H       1  UNL1        0.0346
     32 H           7.9693    2.5733    0.0000 H       1  UNL1        0.0740
     33 H          10.2836    1.2012    0.0000 H       1  UNL1        0.0344
     34 H           7.4355    2.4163    0.0000 H       1  UNL1        0.0327
     35 H           8.2233   -0.4053    0.0000 H       1  UNL1        0.0272
     36 H           9.0203   -0.4145    0.0000 H       1  UNL1        0.0272
     37 H           6.3295   -0.2583    0.0000 H       1  UNL1        0.0602
     38 H           9.7044   -0.0301    0.0000 H       1  UNL1        0.0269
     39 H          10.1108    0.6555    0.0000 H       1  UNL1        0.0269
     40 H           5.7768    2.2026    0.0000 H       1  UNL1        0.0270
     41 H           5.3670    1.5175    0.0000 H       1  UNL1        0.0270
     42 H           5.3574    0.6881    0.0000 H       1  UNL1        0.0290
     43 H           5.7512   -0.0063    0.0000 H       1  UNL1        0.0290
     44 H          10.6504    2.6912    0.0000 H       1  UNL1        0.0415
     45 H           7.1356   -0.4178    0.0000 H       1  UNL1        0.0236
     46 H           7.7484   -1.0449    0.0000 H       1  UNL1        0.0236
     47 H           8.3755   -0.4321    0.0000 H       1  UNL1        0.0236
     48 H           7.5220    2.9978    0.0000 H       1  UNL1        0.0560
     49 H           7.1396    3.6971    0.0000 H       1  UNL1        0.0560
     50 H          11.0965    1.3907    0.0000 H       1  UNL1        0.0238
     51 H          11.8365    1.8610    0.0000 H       1  UNL1        0.0238
     52 H          11.3662    2.6010    0.0000 H       1  UNL1        0.0238
     53 H           6.5380   -1.7593    0.0000 H       1  UNL1        0.0937
     54 H           6.0010   -3.0693    0.0000 H       1  UNL1        0.0671
     55 H           6.0742    4.2593    0.0000 H       1  UNL1        0.2094
     56 H           4.5981   -3.2593    0.0000 H       1  UNL1        0.0648
     57 H           4.2690   -0.8293    0.0000 H       1  UNL1        0.0647
     58 H           3.7320   -2.1393    0.0000 H       1  UNL1        0.0647
     59 H           6.8671   -3.5693    0.0000 H       1  UNL1        0.2101
     60 H           3.8015   -0.4744    0.0000 H       1  UNL1        0.0584
     61 H           3.0044   -0.4744    0.0000 H       1  UNL1        0.0584
     62 H           4.5981   -4.2593    0.0000 H       1  UNL1        0.2100
     63 H           3.4030   -3.5693    0.0000 H       1  UNL1        0.2100
     64 H           2.0000   -1.1393    0.0000 H       1  UNL1        0.2095
@<TRIPOS>BOND
     1     1    12    1
     2     1    23    1
     3    16     2    1
     4    25     2    1
     5     3    22    1
     6     3    55    1
     7     4    23    2
     8     5    25    1
     9     5    28    1
    10    26     6    1
    11     6    59    1
    12    27     7    1
    13     7    62    1
    14    29     8    1
    15     8    63    1
    16     9    30    1
    17     9    64    1
    18    10    11    1
    19    10    15    1
    20    10    16    1
    21    10    21    1
    22    11    12    1
    23    11    14    1
    24    11    31    1
    25    12    13    1
    26    12    32    1
    27    13    17    1
    28    13    20    1
    29    13    33    1
    30    14    18    1
    31    14    22    1
    32    14    34    1
    33    15    17    1
    34    15    35    1
    35    15    36    1
    36    16    19    1
    37    16    37    1
    38    17    38    1
    39    17    39    1
    40    18    19    1
    41    18    40    1
    42    18    41    1
    43    19    42    1
    44    19    43    1
    45    20    23    1
    46    20    24    1
    47    20    44    1
    48    21    45    1
    49    21    46    1
    50    21    47    1
    51    22    48    1
    52    22    49    1
    53    24    50    1
    54    24    51    1
    55    24    52    1
    56    25    26    1
    57    25    53    1
    58    26    27    1
    59    26    54    1
    60    27    29    1
    61    27    56    1
    62    28    29    1
    63    28    30    1
    64    28    57    1
    65    29    58    1
    66    30    60    1
    67    30    61    1
