@<TRIPOS>MOLECULE
IMPHY017508
 27 27 0 0 0
SMALL
GASTEIGER

@<TRIPOS>ATOM
      1 O           3.7320   -2.2500    0.0000 O.2     1  UNL1       -0.2924
      2 C           3.7320    0.7500    0.0000 C.3     1  UNL1       -0.0195
      3 C           3.7320    1.7500    0.0000 C.3     1  UNL1       -0.0404
      4 C           4.5981    0.2500    0.0000 C.3     1  UNL1       -0.0395
      5 C           4.5981   -0.7500    0.0000 C.3     1  UNL1        0.0107
      6 C           2.8660    0.2500    0.0000 C.2     1  UNL1       -0.0744
      7 C           2.8660   -0.7500    0.0000 C.2     1  UNL1       -0.0117
      8 C           4.5981    2.2500    0.0000 C.3     1  UNL1       -0.0621
      9 C           2.8660    2.2500    0.0000 C.3     1  UNL1       -0.0621
     10 C           3.7320   -1.2500    0.0000 C.2     1  UNL1        0.1587
     11 C           2.0000   -1.2500    0.0000 C.3     1  UNL1       -0.0367
     12 H           4.2690    1.0600    0.0000 H       1  UNL1        0.0346
     13 H           3.7320    2.3700    0.0000 H       1  UNL1        0.0301
     14 H           5.2087    0.1423    0.0000 H       1  UNL1        0.0275
     15 H           4.8101    0.8326    0.0000 H       1  UNL1        0.0275
     16 H           4.8101   -1.3326    0.0000 H       1  UNL1        0.0345
     17 H           5.2087   -0.6423    0.0000 H       1  UNL1        0.0345
     18 H           2.3291    0.5600    0.0000 H       1  UNL1        0.0579
     19 H           4.9081    1.7131    0.0000 H       1  UNL1        0.0233
     20 H           5.1350    2.5600    0.0000 H       1  UNL1        0.0233
     21 H           4.2881    2.7869    0.0000 H       1  UNL1        0.0233
     22 H           3.1760    2.7869    0.0000 H       1  UNL1        0.0233
     23 H           2.3291    2.5600    0.0000 H       1  UNL1        0.0233
     24 H           2.5560    1.7131    0.0000 H       1  UNL1        0.0233
     25 H           1.6900   -0.7131    0.0000 H       1  UNL1        0.0278
     26 H           1.4631   -1.5600    0.0000 H       1  UNL1        0.0278
     27 H           2.3100   -1.7869    0.0000 H       1  UNL1        0.0278
@<TRIPOS>BOND
     1     1    10    2
     2     2     3    1
     3     2     4    1
     4     2     6    1
     5     2    12    1
     6     3     8    1
     7     3     9    1
     8     3    13    1
     9     4     5    1
    10     4    14    1
    11     4    15    1
    12     5    10    1
    13     5    16    1
    14     5    17    1
    15     6     7    2
    16     6    18    1
    17     7    10    1
    18     7    11    1
    19     8    19    1
    20     8    20    1
    21     8    21    1
    22     9    22    1
    23     9    23    1
    24     9    24    1
    25    11    25    1
    26    11    26    1
    27    11    27    1
