@<TRIPOS>MOLECULE
IMPHY012692
 40 41 0 0 0
SMALL
GASTEIGER

@<TRIPOS>ATOM
      1 O           2.3100   -0.1751    0.0000 O.3     1  UNL1       -0.3878
      2 C           5.3100   -0.1751    0.0000 C.3     1  UNL1       -0.0018
      3 C           4.8100   -1.0412    0.0000 C.3     1  UNL1       -0.0316
      4 C           5.8978   -0.9841    0.0000 C.3     1  UNL1       -0.0394
      5 C           5.8978    0.6339    0.0000 C.3     1  UNL1       -0.0219
      6 C           4.8100    0.6909    0.0000 C.2     1  UNL1       -0.0674
      7 C           6.8488   -0.6751    0.0000 C.3     1  UNL1       -0.0307
      8 C           3.8100   -1.0412    0.0000 C.3     1  UNL1       -0.0198
      9 C           6.8488    0.3249    0.0000 C.2     1  UNL1       -0.0700
     10 C           3.3100   -0.1751    0.0000 C.3     1  UNL1        0.0739
     11 C           5.3100   -1.9072    0.0000 C.3     1  UNL1       -0.0615
     12 C           3.8100    0.6909    0.0000 C.2     1  UNL1       -0.0564
     13 C           5.3100    1.5569    0.0000 C.3     1  UNL1       -0.0432
     14 C           7.6579    0.9127    0.0000 C.2     1  UNL1       -0.0764
     15 C           8.5714    0.5059    0.0000 C.3     1  UNL1       -0.0438
     16 C           7.5533    1.9072    0.0000 C.3     1  UNL1       -0.0438
     17 H           5.4300   -1.0412    0.0000 H       1  UNL1        0.0308
     18 H           5.3608   -1.2942    0.0000 H       1  UNL1        0.0277
     19 H           6.1500   -1.5505    0.0000 H       1  UNL1        0.0277
     20 H           6.1500    1.2003    0.0000 H       1  UNL1        0.0319
     21 H           5.3608    0.9439    0.0000 H       1  UNL1        0.0319
     22 H           6.9778   -1.2816    0.0000 H       1  UNL1        0.0310
     23 H           7.4654   -0.6103    0.0000 H       1  UNL1        0.0310
     24 H           3.2274   -1.2532    0.0000 H       1  UNL1        0.0296
     25 H           3.9177   -1.6517    0.0000 H       1  UNL1        0.0296
     26 H           3.0000   -0.7121    0.0000 H       1  UNL1        0.0638
     27 H           4.7731   -2.2172    0.0000 H       1  UNL1        0.0233
     28 H           5.6200   -2.4441    0.0000 H       1  UNL1        0.0233
     29 H           5.8469   -1.5972    0.0000 H       1  UNL1        0.0233
     30 H           3.5000    1.2278    0.0000 H       1  UNL1        0.0597
     31 H           5.8469    1.2469    0.0000 H       1  UNL1        0.0275
     32 H           5.6200    2.0939    0.0000 H       1  UNL1        0.0275
     33 H           4.7731    1.8669    0.0000 H       1  UNL1        0.0275
     34 H           2.0000   -0.7121    0.0000 H       1  UNL1        0.2102
     35 H           8.3192   -0.0605    0.0000 H       1  UNL1        0.0274
     36 H           9.1378    0.2537    0.0000 H       1  UNL1        0.0274
     37 H           8.8236    1.0723    0.0000 H       1  UNL1        0.0274
     38 H           8.1699    1.9720    0.0000 H       1  UNL1        0.0274
     39 H           7.4885    2.5238    0.0000 H       1  UNL1        0.0274
     40 H           6.9367    1.8424    0.0000 H       1  UNL1        0.0274
@<TRIPOS>BOND
     1     1    10    1
     2     1    34    1
     3     2     3    1
     4     2     4    1
     5     2     5    1
     6     2     6    1
     7     3     8    1
     8     3    11    1
     9     3    17    1
    10     4     7    1
    11     4    18    1
    12     4    19    1
    13     5     9    1
    14     5    20    1
    15     5    21    1
    16     6    12    2
    17     6    13    1
    18     7     9    1
    19     7    22    1
    20     7    23    1
    21     8    10    1
    22     8    24    1
    23     8    25    1
    24     9    14    2
    25    10    12    1
    26    10    26    1
    27    11    27    1
    28    11    28    1
    29    11    29    1
    30    12    30    1
    31    13    31    1
    32    13    32    1
    33    13    33    1
    34    14    15    1
    35    14    16    1
    36    15    35    1
    37    15    36    1
    38    15    37    1
    39    16    38    1
    40    16    39    1
    41    16    40    1
