@<TRIPOS>MOLECULE
IMPHY009231
 36 36 0 0 0
SMALL
GASTEIGER

@<TRIPOS>ATOM
      1 O           4.2690   -0.5000    0.0000 O.3     1  UNL1       -0.3405
      2 O           6.0010   -0.5000    0.0000 O.3     1  UNL1       -0.3446
      3 O           4.2690   -3.5000    0.0000 O.3     1  UNL1       -0.3864
      4 O           2.5369   -2.5000    0.0000 O.3     1  UNL1       -0.3865
      5 O           6.0010   -2.5000    0.0000 O.3     1  UNL1       -0.3841
      6 O           2.5369    0.5000    0.0000 O.3     1  UNL1       -0.3924
      7 O           6.0010    3.5000    0.0000 O.3     1  UNL1       -0.3897
      8 N           8.5991    3.0000    0.0000 N.1     1  UNL1       -0.1911
      9 C           4.2690   -2.5000    0.0000 C.3     1  UNL1        0.1141
     10 C           3.4030   -2.0000    0.0000 C.3     1  UNL1        0.1119
     11 C           5.1350   -2.0000    0.0000 C.3     1  UNL1        0.1341
     12 C           3.4030   -1.0000    0.0000 C.3     1  UNL1        0.1130
     13 C           5.1350   -1.0000    0.0000 C.3     1  UNL1        0.1882
     14 C           2.5369   -0.5000    0.0000 C.3     1  UNL1        0.0730
     15 C           6.0010    0.5000    0.0000 C.3     1  UNL1        0.0702
     16 C           6.8671    1.0000    0.0000 C.2     1  UNL1       -0.0430
     17 C           6.8671    2.0000    0.0000 C.2     1  UNL1        0.0528
     18 C           6.0010    2.5000    0.0000 C.3     1  UNL1        0.0787
     19 C           7.7331    2.5000    0.0000 C.1     1  UNL1        0.0969
     20 H           4.8059   -2.8100    0.0000 H       1  UNL1        0.0648
     21 H           3.4030   -2.6200    0.0000 H       1  UNL1        0.0647
     22 H           5.6720   -1.6900    0.0000 H       1  UNL1        0.0671
     23 H           3.4030   -0.3800    0.0000 H       1  UNL1        0.0647
     24 H           5.1350   -0.3800    0.0000 H       1  UNL1        0.0938
     25 H           1.9264   -0.3923    0.0000 H       1  UNL1        0.0584
     26 H           2.3249   -1.0826    0.0000 H       1  UNL1        0.0584
     27 H           3.7320   -3.8100    0.0000 H       1  UNL1        0.2100
     28 H           2.0000   -2.1900    0.0000 H       1  UNL1        0.2100
     29 H           6.5380   -2.1900    0.0000 H       1  UNL1        0.2101
     30 H           5.7890    1.0826    0.0000 H       1  UNL1        0.0605
     31 H           5.3905    0.3923    0.0000 H       1  UNL1        0.0605
     32 H           2.0000    0.8100    0.0000 H       1  UNL1        0.2095
     33 H           7.4040    0.6900    0.0000 H       1  UNL1        0.0605
     34 H           5.3905    2.6077    0.0000 H       1  UNL1        0.0614
     35 H           5.7890    1.9174    0.0000 H       1  UNL1        0.0614
     36 H           5.4641    3.8100    0.0000 H       1  UNL1        0.2099
@<TRIPOS>BOND
     1     1    12    1
     2     1    13    1
     3    13     2    1
     4     2    15    1
     5     9     3    1
     6     3    27    1
     7    10     4    1
     8     4    28    1
     9    11     5    1
    10     5    29    1
    11     6    14    1
    12     6    32    1
    13     7    18    1
    14     7    36    1
    15     8    19    3
    16     9    10    1
    17     9    11    1
    18     9    20    1
    19    10    12    1
    20    10    21    1
    21    11    13    1
    22    11    22    1
    23    12    14    1
    24    12    23    1
    25    13    24    1
    26    14    25    1
    27    14    26    1
    28    15    16    1
    29    15    30    1
    30    15    31    1
    31    16    17    2
    32    16    33    1
    33    17    18    1
    34    17    19    1
    35    18    34    1
    36    18    35    1
