@<TRIPOS>MOLECULE
IMPHY007987
 162 174 0 0 0
SMALL
GASTEIGER

@<TRIPOS>ATOM
      1 O           9.4090  -10.3098    0.0000 O.3     1  UNL1       -0.4779
      2 O           9.5543   -6.1448    0.0000 O.3     1  UNL1       -0.3281
      3 O           9.8236   -5.7278    0.0000 O.3     1  UNL1       -0.4514
      4 O           6.5417   -6.7118    0.0000 O.3     1  UNL1       -0.4476
      5 O           7.0401   -4.6728    0.0000 O.3     1  UNL1       -0.4500
      6 O          11.9467  -10.1807    0.0000 O.3     1  UNL1       -0.3560
      7 O          11.0348  -10.5910    0.0000 O.3     1  UNL1       -0.3560
      8 O           7.3000   -7.2013    0.0000 O.3     1  UNL1       -0.4275
      9 O          10.2650   -2.7944    0.0000 O.3     1  UNL1       -0.4584
     10 O          12.7482   -8.7525    0.0000 O.2     1  UNL1       -0.2868
     11 O          11.2738   -6.5402    0.0000 O.2     1  UNL1       -0.2453
     12 O           7.7338  -11.6510    0.0000 O.3     1  UNL1       -0.5009
     13 O           5.7200   -8.0237    0.0000 O.2     1  UNL1       -0.2449
     14 O           5.7638  -10.8467    0.0000 O.3     1  UNL1       -0.5032
     15 O           7.6755    6.2325    0.0000 O.3     1  UNL1       -0.3293
     16 O           5.5719   -4.0713    0.0000 O.2     1  UNL1       -0.2449
     17 O           9.4076    4.2325    0.0000 O.3     1  UNL1       -0.4487
     18 O           7.6755    3.2325    0.0000 O.3     1  UNL1       -0.3852
     19 O           5.9434    4.2325    0.0000 O.3     1  UNL1       -0.3864
     20 O           9.4076    6.2325    0.0000 O.3     1  UNL1       -0.4276
     21 O           5.6445   -6.4631    0.0000 O.2     1  UNL1       -0.2449
     22 O          10.4660   -1.2204    0.0000 O.2     1  UNL1       -0.2449
     23 O           5.9434    7.2325    0.0000 O.3     1  UNL1       -0.4585
     24 O           6.8685   -0.0958    0.0000 O.3     1  UNL1       -0.5028
     25 O           9.4076    1.2325    0.0000 O.3     1  UNL1       -0.4476
     26 O           6.3682   -0.3871    0.0000 O.3     1  UNL1       -0.5028
     27 O           3.9603   -1.9406    0.0000 O.3     1  UNL1       -0.5032
     28 O           4.9776   -0.1627    0.0000 O.3     1  UNL1       -0.5009
     29 O           7.3593    1.2246    0.0000 O.3     1  UNL1       -0.5009
     30 O           8.5415    2.7325    0.0000 O.2     1  UNL1       -0.2448
     31 O           3.3302   -9.0014    0.0000 O.3     1  UNL1       -0.5032
     32 O           3.2709   -5.5380    0.0000 O.3     1  UNL1       -0.5032
     33 O           2.3008   -7.2867    0.0000 O.3     1  UNL1       -0.5009
     34 O           8.5415    7.7325    0.0000 O.2     1  UNL1       -0.2449
     35 O           4.2114    7.2325    0.0000 O.2     1  UNL1       -0.2450
     36 O          11.6397    0.3665    0.0000 O.3     1  UNL1       -0.5008
     37 O          12.8716    3.2325    0.0000 O.3     1  UNL1       -0.5032
     38 O          12.8716    1.2325    0.0000 O.3     1  UNL1       -0.5008
     39 O          11.1396   10.2325    0.0000 O.3     1  UNL1       -0.5032
     40 O          12.8716    7.2325    0.0000 O.3     1  UNL1       -0.5032
     41 O          12.8716    9.2325    0.0000 O.3     1  UNL1       -0.5009
     42 O           3.3454   10.7325    0.0000 O.3     1  UNL1       -0.5032
     43 O           6.8095   10.7325    0.0000 O.3     1  UNL1       -0.5032
     44 O           5.0774   11.7325    0.0000 O.3     1  UNL1       -0.5009
     45 C           9.4515   -8.5812    0.0000 C.3     1  UNL1        0.0629
     46 C          10.0570   -9.4609    0.0000 C.3     1  UNL1        0.1723
     47 C           8.9081   -5.1656    0.0000 C.3     1  UNL1        0.1730
     48 C           8.4224   -8.8897    0.0000 C.ar    1  UNL1        0.0234
     49 C           7.9081   -5.1695    0.0000 C.3     1  UNL1        0.1851
     50 C          11.1354   -9.5961    0.0000 C.3     1  UNL1        0.2684
     51 C           6.9969   -5.7387    0.0000 C.3     1  UNL1        0.2053
     52 C          10.1473   -7.7627    0.0000 C.2     1  UNL1        0.0513
     53 C           9.7722   -4.6623    0.0000 C.3     1  UNL1        0.1371
     54 C           8.4008   -9.9575    0.0000 C.ar    1  UNL1        0.1707
     55 C           8.1573   -6.6866    0.0000 C.3     1  UNL1        0.2465
     56 C           7.3910   -8.5891    0.0000 C.ar    1  UNL1        0.0700
     57 C          11.7496   -8.6994    0.0000 C.2     1  UNL1        0.2188
     58 C          11.2340   -7.7426    0.0000 C.2     1  UNL1       -0.0030
     59 C          10.2863   -6.6974    0.0000 C.2     1  UNL1        0.3364
     60 C          10.2688   -3.7944    0.0000 C.3     1  UNL1        0.1226
     61 C           7.5746  -10.6637    0.0000 C.ar    1  UNL1        0.2012
     62 C           6.6888   -7.7760    0.0000 C.2     1  UNL1        0.3403
     63 C           6.4726   -9.1703    0.0000 C.ar    1  UNL1       -0.0020
     64 C           6.5684  -10.2529    0.0000 C.ar    1  UNL1        0.1628
     65 C           6.5368   -3.8088    0.0000 C.2     1  UNL1        0.3405
     66 C           6.3001   -7.2182    0.0000 C.2     1  UNL1        0.3417
     67 C           6.5330   -2.8088    0.0000 C.ar    1  UNL1        0.0740
     68 C           7.6755    4.2325    0.0000 C.3     1  UNL1        0.1263
     69 C           6.8095    4.7325    0.0000 C.3     1  UNL1        0.1141
     70 C           8.5415    4.7325    0.0000 C.3     1  UNL1        0.1933
     71 C           6.8095    5.7325    0.0000 C.3     1  UNL1        0.1251
     72 C           9.7616   -1.9303    0.0000 C.2     1  UNL1        0.3401
     73 C           8.5415    5.7325    0.0000 C.3     1  UNL1        0.2453
     74 C           7.0297   -1.9409    0.0000 C.ar    1  UNL1        0.0458
     75 C           8.8937   -1.4336    0.0000 C.ar    1  UNL1        0.0740
     76 C           7.8937   -1.4375    0.0000 C.ar    1  UNL1        0.0458
     77 C           5.3003   -7.2352    0.0000 C.ar    1  UNL1        0.0662
     78 C           5.9434    6.2325    0.0000 C.3     1  UNL1        0.1215
     79 C           5.4915   -2.8289    0.0000 C.ar    1  UNL1       -0.0017
     80 C           6.5193   -1.0328    0.0000 C.ar    1  UNL1        0.1708
     81 C           9.4249   -0.5376    0.0000 C.ar    1  UNL1       -0.0009
     82 C           7.3556   -0.5456    0.0000 C.ar    1  UNL1        0.1708
     83 C           4.9603   -1.9329    0.0000 C.ar    1  UNL1        0.1628
     84 C           5.4776   -1.0288    0.0000 C.ar    1  UNL1        0.2012
     85 C           4.7855   -6.3782    0.0000 C.ar    1  UNL1       -0.0023
     86 C           4.8151   -8.1097    0.0000 C.ar    1  UNL1       -0.0023
     87 C           8.9076    0.3664    0.0000 C.ar    1  UNL1        0.1743
     88 C           7.8659    0.3624    0.0000 C.ar    1  UNL1        0.2021
     89 C           9.4076    3.2325    0.0000 C.2     1  UNL1        0.3435
     90 C           3.8153   -8.1268    0.0000 C.ar    1  UNL1        0.1628
     91 C           3.7858   -6.3953    0.0000 C.ar    1  UNL1        0.1628
     92 C          10.2736    2.7325    0.0000 C.ar    1  UNL1        0.1085
     93 C           9.4076    7.2325    0.0000 C.2     1  UNL1        0.3417
     94 C          10.2736    1.7325    0.0000 C.ar    1  UNL1        0.1876
     95 C           3.3006   -7.2696    0.0000 C.ar    1  UNL1        0.2006
     96 C           5.0774    7.7325    0.0000 C.2     1  UNL1        0.3395
     97 C          10.2736    7.7325    0.0000 C.ar    1  UNL1        0.0662
     98 C          11.1396    3.2325    0.0000 C.ar    1  UNL1        0.0013
     99 C          11.1396    1.2325    0.0000 C.ar    1  UNL1        0.2060
    100 C           5.0774    8.7325    0.0000 C.ar    1  UNL1        0.0661
    101 C          12.0056    2.7325    0.0000 C.ar    1  UNL1        0.1630
    102 C          12.0056    1.7325    0.0000 C.ar    1  UNL1        0.2044
    103 C          11.1396    7.2325    0.0000 C.ar    1  UNL1       -0.0023
    104 C          10.2736    8.7325    0.0000 C.ar    1  UNL1       -0.0023
    105 C           5.9434    9.2325    0.0000 C.ar    1  UNL1       -0.0023
    106 C           4.2114    9.2325    0.0000 C.ar    1  UNL1       -0.0023
    107 C          11.1396    9.2325    0.0000 C.ar    1  UNL1        0.1628
    108 C          12.0056    7.7325    0.0000 C.ar    1  UNL1        0.1628
    109 C          12.0056    8.7325    0.0000 C.ar    1  UNL1        0.2006
    110 C           4.2114   10.2325    0.0000 C.ar    1  UNL1        0.1628
    111 C           5.9434   10.2325    0.0000 C.ar    1  UNL1        0.1628
    112 C           5.0774   10.7325    0.0000 C.ar    1  UNL1        0.2006
    113 H           8.9009   -9.2288    0.0000 H       1  UNL1        0.0439
    114 H          10.3857  -10.2448    0.0000 H       1  UNL1        0.0802
    115 H           9.7581   -5.1624    0.0000 H       1  UNL1        0.0801
    116 H           7.0581   -5.1728    0.0000 H       1  UNL1        0.0813
    117 H           6.1486   -5.6849    0.0000 H       1  UNL1        0.0837
    118 H          10.5755   -4.9400    0.0000 H       1  UNL1        0.0670
    119 H           7.7670   -7.1682    0.0000 H       1  UNL1        0.1098
    120 H          11.5469   -7.2074    0.0000 H       1  UNL1        0.0659
    121 H          10.6692   -4.2678    0.0000 H       1  UNL1        0.0725
    122 H           9.6693   -3.6362    0.0000 H       1  UNL1        0.0725
    123 H           5.9168   -8.8955    0.0000 H       1  UNL1        0.0663
    124 H          11.8843  -10.7975    0.0000 H       1  UNL1        0.2133
    125 H          10.4694  -10.8454    0.0000 H       1  UNL1        0.2133
    126 H           7.2531  -12.0425    0.0000 H       1  UNL1        0.2924
    127 H           8.2124    3.9225    0.0000 H       1  UNL1        0.0659
    128 H           6.8095    4.1125    0.0000 H       1  UNL1        0.0648
    129 H           9.0785    5.0425    0.0000 H       1  UNL1        0.0825
    130 H           6.8095    6.3525    0.0000 H       1  UNL1        0.0658
    131 H           5.1955  -10.5987    0.0000 H       1  UNL1        0.2923
    132 H           8.5415    6.3525    0.0000 H       1  UNL1        0.1097
    133 H           5.3329    6.3401    0.0000 H       1  UNL1        0.0725
    134 H           5.7314    5.6499    0.0000 H       1  UNL1        0.0725
    135 H           5.1899   -3.3705    0.0000 H       1  UNL1        0.0664
    136 H          10.0449   -0.5424    0.0000 H       1  UNL1        0.0664
    137 H           7.1386    2.9225    0.0000 H       1  UNL1        0.2101
    138 H           5.4065    4.5425    0.0000 H       1  UNL1        0.2100
    139 H           5.0862   -5.8360    0.0000 H       1  UNL1        0.0663
    140 H           5.1342   -8.6413    0.0000 H       1  UNL1        0.0663
    141 H           6.6609    0.4885    0.0000 H       1  UNL1        0.2923
    142 H           5.9624    0.0816    0.0000 H       1  UNL1        0.2923
    143 H           3.6545   -2.4799    0.0000 H       1  UNL1        0.2923
    144 H           4.3576   -0.1627    0.0000 H       1  UNL1        0.2924
    145 H           7.6651    1.7640    0.0000 H       1  UNL1        0.2924
    146 H          11.1396    3.8525    0.0000 H       1  UNL1        0.0665
    147 H           2.7104   -9.0121    0.0000 H       1  UNL1        0.2923
    148 H           2.6510   -5.5486    0.0000 H       1  UNL1        0.2923
    149 H          11.1396    6.6125    0.0000 H       1  UNL1        0.0663
    150 H           9.7366    9.0425    0.0000 H       1  UNL1        0.0663
    151 H           2.0000   -7.8289    0.0000 H       1  UNL1        0.2924
    152 H           6.4804    8.9225    0.0000 H       1  UNL1        0.0663
    153 H           3.6745    8.9225    0.0000 H       1  UNL1        0.0663
    154 H          11.3297   -0.1705    0.0000 H       1  UNL1        0.2924
    155 H          12.8716    3.8525    0.0000 H       1  UNL1        0.2923
    156 H          13.4086    1.5425    0.0000 H       1  UNL1        0.2924
    157 H          10.6027   10.5425    0.0000 H       1  UNL1        0.2923
    158 H          13.4086    7.5425    0.0000 H       1  UNL1        0.2923
    159 H          12.8716    9.8525    0.0000 H       1  UNL1        0.2924
    160 H           2.8084   10.4225    0.0000 H       1  UNL1        0.2923
    161 H           6.8095   11.3525    0.0000 H       1  UNL1        0.2923
    162 H           4.5405   12.0425    0.0000 H       1  UNL1        0.2924
@<TRIPOS>BOND
     1     1    46    1
     2     1    54    1
     3     2    53    1
     4     2    55    1
     5     3    47    1
     6     3    59    1
     7     4    51    1
     8     4    62    1
     9     5    49    1
    10     5    65    1
    11     6    50    1
    12     6   124    1
    13     7    50    1
    14     7   125    1
    15    55     8    1
    16     8    66    1
    17     9    60    1
    18     9    72    1
    19    10    57    2
    20    11    59    2
    21    12    61    1
    22    12   126    1
    23    13    62    2
    24    14    64    1
    25    14   131    1
    26    15    71    1
    27    15    73    1
    28    16    65    2
    29    70    17    1
    30    17    89    1
    31    68    18    1
    32    18   137    1
    33    69    19    1
    34    19   138    1
    35    73    20    1
    36    20    93    1
    37    21    66    2
    38    22    72    2
    39    23    78    1
    40    23    96    1
    41    24    80    1
    42    24   141    1
    43    25    87    1
    44    25    94    1
    45    26    82    1
    46    26   142    1
    47    27    83    1
    48    27   143    1
    49    28    84    1
    50    28   144    1
    51    29    88    1
    52    29   145    1
    53    30    89    2
    54    31    90    1
    55    31   147    1
    56    32    91    1
    57    32   148    1
    58    33    95    1
    59    33   151    1
    60    34    93    2
    61    35    96    2
    62    36    99    1
    63    36   154    1
    64    37   101    1
    65    37   155    1
    66    38   102    1
    67    38   156    1
    68    39   107    1
    69    39   157    1
    70    40   108    1
    71    40   158    1
    72    41   109    1
    73    41   159    1
    74    42   110    1
    75    42   160    1
    76    43   111    1
    77    43   161    1
    78    44   112    1
    79    44   162    1
    80    45    46    1
    81    45    48    1
    82    45    52    1
    83    45   113    1
    84    46    50    1
    85    46   114    1
    86    47    49    1
    87    47    53    1
    88    47   115    1
    89    48    54   ar
    90    48    56   ar
    91    49    51    1
    92    49   116    1
    93    50    57    1
    94    51    55    1
    95    51   117    1
    96    52    58    2
    97    52    59    1
    98    53    60    1
    99    53   118    1
   100    54    61   ar
   101    55   119    1
   102    56    62    1
   103    56    63   ar
   104    57    58    1
   105    58   120    1
   106    60   121    1
   107    60   122    1
   108    61    64   ar
   109    63    64   ar
   110    63   123    1
   111    65    67    1
   112    66    77    1
   113    67    74   ar
   114    67    79   ar
   115    68    69    1
   116    68    70    1
   117    68   127    1
   118    69    71    1
   119    69   128    1
   120    70    73    1
   121    70   129    1
   122    71    78    1
   123    71   130    1
   124    72    75    1
   125    73   132    1
   126    74    76    1
   127    74    80   ar
   128    75    76   ar
   129    75    81   ar
   130    76    82   ar
   131    77    85   ar
   132    77    86   ar
   133    78   133    1
   134    78   134    1
   135    79    83   ar
   136    79   135    1
   137    80    84   ar
   138    81    87   ar
   139    81   136    1
   140    82    88   ar
   141    83    84   ar
   142    85    91   ar
   143    85   139    1
   144    86    90   ar
   145    86   140    1
   146    87    88   ar
   147    89    92    1
   148    90    95   ar
   149    91    95   ar
   150    92    94   ar
   151    92    98   ar
   152    93    97    1
   153    94    99   ar
   154    96   100    1
   155    97   103   ar
   156    97   104   ar
   157    98   101   ar
   158    98   146    1
   159    99   102   ar
   160   100   105   ar
   161   100   106   ar
   162   101   102   ar
   163   103   108   ar
   164   103   149    1
   165   104   107   ar
   166   104   150    1
   167   105   111   ar
   168   105   152    1
   169   106   110   ar
   170   106   153    1
   171   107   109   ar
   172   108   109   ar
   173   110   112   ar
   174   111   112   ar
