@<TRIPOS>MOLECULE
IMPHY012277
 28 30 0 0 0
SMALL
GASTEIGER

@<TRIPOS>ATOM
      1 N           7.0547   -0.2724    0.0000 N.3     1  UNL1       -0.3080
      2 N           4.5274    0.8518    0.0000 N.ar    1  UNL1       -0.3565
      3 C           6.3518    0.4963    0.0000 C.3     1  UNL1        0.0455
      4 C           5.3364    0.2640    0.0000 C.ar    1  UNL1        0.0371
      5 C           5.0274   -0.6871    0.0000 C.ar    1  UNL1       -0.0164
      6 C           5.7123   -1.4718    0.0000 C.3     1  UNL1       -0.0128
      7 C           6.7328   -1.2631    0.0000 C.3     1  UNL1        0.0005
      8 C           4.0274   -0.6871    0.0000 C.ar    1  UNL1        0.0032
      9 C           3.7183    0.2640    0.0000 C.ar    1  UNL1        0.0470
     10 C           6.6498    1.4508    0.0000 C.3     1  UNL1       -0.0442
     11 C           3.3424   -1.4718    0.0000 C.ar    1  UNL1       -0.0523
     12 C           2.7029    0.4963    0.0000 C.ar    1  UNL1       -0.0378
     13 C           2.3219   -1.2631    0.0000 C.ar    1  UNL1       -0.0611
     14 C           2.0000   -0.2724    0.0000 C.ar    1  UNL1       -0.0598
     15 H           6.9570    0.6310    0.0000 H       1  UNL1        0.0522
     16 H           5.1824   -1.7936    0.0000 H       1  UNL1        0.0326
     17 H           5.9387   -2.0490    0.0000 H       1  UNL1        0.0326
     18 H           6.7513   -1.8828    0.0000 H       1  UNL1        0.0427
     19 H           7.3466   -1.3510    0.0000 H       1  UNL1        0.0427
     20 H           7.6607   -0.1412    0.0000 H       1  UNL1        0.1226
     21 H           4.5274    1.4718    0.0000 H       1  UNL1        0.1656
     22 H           7.2416    1.2661    0.0000 H       1  UNL1        0.0248
     23 H           6.8345    2.0426    0.0000 H       1  UNL1        0.0248
     24 H           6.0580    1.6356    0.0000 H       1  UNL1        0.0248
     25 H           3.5408   -2.0592    0.0000 H       1  UNL1        0.0624
     26 H           2.5182    1.0881    0.0000 H       1  UNL1        0.0638
     27 H           1.9088   -1.7254    0.0000 H       1  UNL1        0.0618
     28 H           1.3940   -0.1412    0.0000 H       1  UNL1        0.0618
@<TRIPOS>BOND
     1     1     3    1
     2     1     7    1
     3     1    20    1
     4     2     4   ar
     5     2     9   ar
     6     2    21    1
     7     3     4    1
     8     3    10    1
     9     3    15    1
    10     4     5   ar
    11     5     6    1
    12     5     8   ar
    13     6     7    1
    14     6    16    1
    15     6    17    1
    16     7    18    1
    17     7    19    1
    18     8     9   ar
    19     8    11   ar
    20     9    12   ar
    21    10    22    1
    22    10    23    1
    23    10    24    1
    24    11    13   ar
    25    11    25    1
    26    12    14   ar
    27    12    26    1
    28    13    14   ar
    29    13    27    1
    30    14    28    1
