@<TRIPOS>MOLECULE
IMPHY006723
 144 150 0 0 0
SMALL
GASTEIGER

@<TRIPOS>ATOM
      1 O          11.5590   -1.7358    0.0000 O.3     1  UNL1       -0.3915
      2 O          14.4479    3.9976    0.0000 O.3     1  UNL1       -0.3449
      3 O           9.4651   -3.1627    0.0000 O.3     1  UNL1       -0.3422
      4 O          16.0963    4.5294    0.0000 O.3     1  UNL1       -0.3405
      5 O           7.7331   -3.1627    0.0000 O.3     1  UNL1       -0.3405
      6 O          15.0619    2.0942    0.0000 O.3     1  UNL1       -0.3841
      7 O           9.4651   -5.1627    0.0000 O.3     1  UNL1       -0.3841
      8 O          17.0173    1.6742    0.0000 O.3     1  UNL1       -0.3864
      9 O           7.7331   -6.1627    0.0000 O.3     1  UNL1       -0.3864
     10 O          18.3587    3.1577    0.0000 O.3     1  UNL1       -0.3865
     11 O           6.0010   -5.1627    0.0000 O.3     1  UNL1       -0.3865
     12 O           6.0010   -2.1627    0.0000 O.3     1  UNL1       -0.3461
     13 O          17.4377    6.0128    0.0000 O.3     1  UNL1       -0.3924
     14 O           4.2690   -2.1627    0.0000 O.3     1  UNL1       -0.3461
     15 O           6.0010   -0.1627    0.0000 O.3     1  UNL1       -0.3841
     16 O           4.2690    0.8373    0.0000 O.3     1  UNL1       -0.3864
     17 O           2.5369   -0.1627    0.0000 O.3     1  UNL1       -0.3869
     18 C          10.6271    1.1157    0.0000 C.3     1  UNL1       -0.0229
     19 C           9.9592    0.3714    0.0000 C.3     1  UNL1       -0.0209
     20 C          11.6056    0.9095    0.0000 C.3     1  UNL1       -0.0271
     21 C          12.3131    1.6740    0.0000 C.3     1  UNL1       -0.0252
     22 C          10.2699   -0.5791    0.0000 C.3     1  UNL1       -0.0036
     23 C          11.9971    2.6666    0.0000 C.3     1  UNL1       -0.0278
     24 C          10.2882    2.1007    0.0000 C.3     1  UNL1       -0.0466
     25 C           9.4651   -1.1627    0.0000 C.3     1  UNL1       -0.0063
     26 C          11.9162   -0.0410    0.0000 C.3     1  UNL1       -0.0227
     27 C          11.2484   -0.7853    0.0000 C.3     1  UNL1        0.0592
     28 C           8.9651    0.3671    0.0000 C.3     1  UNL1       -0.0464
     29 C          10.9779    2.8814    0.0000 C.3     1  UNL1       -0.0486
     30 C          12.7155    3.4797    0.0000 C.3     1  UNL1       -0.0052
     31 C           8.6604   -0.5791    0.0000 C.3     1  UNL1       -0.0467
     32 C          13.3693    1.4258    0.0000 C.3     1  UNL1       -0.0447
     33 C           9.7781    1.6442    0.0000 C.3     1  UNL1       -0.0588
     34 C           9.3422    1.1584    0.0000 C.3     1  UNL1       -0.0587
     35 C          12.6164    0.7211    0.0000 C.3     1  UNL1       -0.0590
     36 C          13.7772    3.2559    0.0000 C.3     1  UNL1        0.0672
     37 C           9.4651   -2.1627    0.0000 C.3     1  UNL1        0.0733
     38 C          14.1063    2.2220    0.0000 C.3     1  UNL1       -0.0255
     39 C          12.9179    4.4590    0.0000 C.3     1  UNL1       -0.0572
     40 C          11.9686    4.1446    0.0000 C.3     1  UNL1       -0.0572
     41 C          10.4651   -2.1627    0.0000 C.3     1  UNL1       -0.0202
     42 C           8.4651   -2.1627    0.0000 C.3     1  UNL1       -0.0354
     43 C          10.9651   -3.0287    0.0000 C.3     1  UNL1       -0.0319
     44 C          15.4256    3.7877    0.0000 C.3     1  UNL1        0.1882
     45 C           8.5991   -3.6627    0.0000 C.3     1  UNL1        0.1885
     46 C          15.7326    2.8360    0.0000 C.3     1  UNL1        0.1341
     47 C           8.5991   -4.6627    0.0000 C.3     1  UNL1        0.1341
     48 C          11.9651   -3.0287    0.0000 C.2     1  UNL1       -0.0852
     49 C          16.7103    2.6260    0.0000 C.3     1  UNL1        0.1141
     50 C           7.7331   -5.1627    0.0000 C.3     1  UNL1        0.1141
     51 C          17.0740    4.3194    0.0000 C.3     1  UNL1        0.1130
     52 C           6.8671   -3.6627    0.0000 C.3     1  UNL1        0.1134
     53 C          17.3810    3.3677    0.0000 C.3     1  UNL1        0.1119
     54 C           6.8671   -4.6627    0.0000 C.3     1  UNL1        0.1119
     55 C          12.4651   -3.8947    0.0000 C.2     1  UNL1       -0.0796
     56 C           6.0010   -3.1627    0.0000 C.3     1  UNL1        0.0796
     57 C          17.7447    5.0611    0.0000 C.3     1  UNL1        0.0730
     58 C          13.4651   -3.8947    0.0000 C.3     1  UNL1       -0.0440
     59 C          11.9651   -4.7608    0.0000 C.3     1  UNL1       -0.0440
     60 C           5.1350   -1.6627    0.0000 C.3     1  UNL1        0.1876
     61 C           5.1350   -0.6627    0.0000 C.3     1  UNL1        0.1341
     62 C           4.2690   -0.1627    0.0000 C.3     1  UNL1        0.1137
     63 C           3.4030   -1.6627    0.0000 C.3     1  UNL1        0.0792
     64 C           3.4030   -0.6627    0.0000 C.3     1  UNL1        0.1069
     65 H          12.4359    0.7278    0.0000 H       1  UNL1        0.0312
     66 H          10.4470   -1.4104    0.0000 H       1  UNL1        0.0335
     67 H          11.7299    3.4735    0.0000 H       1  UNL1        0.0312
     68 H           9.9007    2.5847    0.0000 H       1  UNL1        0.0271
     69 H           9.7451    1.8017    0.0000 H       1  UNL1        0.0271
     70 H           8.7080   -1.5489    0.0000 H       1  UNL1        0.0332
     71 H          12.2988   -0.5289    0.0000 H       1  UNL1        0.0293
     72 H          12.4631    0.2510    0.0000 H       1  UNL1        0.0293
     73 H          10.8343   -1.2468    0.0000 H       1  UNL1        0.0596
     74 H           9.0276    0.9840    0.0000 H       1  UNL1        0.0271
     75 H           8.3583    0.4941    0.0000 H       1  UNL1        0.0271
     76 H          11.2077    3.4572    0.0000 H       1  UNL1        0.0268
     77 H          10.4498    3.2063    0.0000 H       1  UNL1        0.0268
     78 H           8.0935   -0.3280    0.0000 H       1  UNL1        0.0269
     79 H           8.3512   -1.1165    0.0000 H       1  UNL1        0.0269
     80 H          13.1263    0.8554    0.0000 H       1  UNL1        0.0271
     81 H          13.8897    1.0887    0.0000 H       1  UNL1        0.0271
     82 H          10.1057    2.1706    0.0000 H       1  UNL1        0.0235
     83 H           9.2517    1.9718    0.0000 H       1  UNL1        0.0235
     84 H           9.4504    1.1178    0.0000 H       1  UNL1        0.0235
     85 H           9.8301    1.5409    0.0000 H       1  UNL1        0.0235
     86 H           8.9596    1.6463    0.0000 H       1  UNL1        0.0235
     87 H           8.8543    0.7758    0.0000 H       1  UNL1        0.0235
     88 H          12.0256    0.5330    0.0000 H       1  UNL1        0.0235
     89 H          12.8045    0.1303    0.0000 H       1  UNL1        0.0235
     90 H          13.2072    0.9092    0.0000 H       1  UNL1        0.0235
     91 H          14.3831    3.1246    0.0000 H       1  UNL1        0.0602
     92 H          14.4825    1.7293    0.0000 H       1  UNL1        0.0290
     93 H          14.6562    2.5084    0.0000 H       1  UNL1        0.0290
     94 H          13.5251    4.3334    0.0000 H       1  UNL1        0.0236
     95 H          13.0434    5.0661    0.0000 H       1  UNL1        0.0236
     96 H          12.3108    4.5845    0.0000 H       1  UNL1        0.0236
     97 H          12.3809    4.6077    0.0000 H       1  UNL1        0.0236
     98 H          11.5056    4.5569    0.0000 H       1  UNL1        0.0236
     99 H          11.5563    3.6816    0.0000 H       1  UNL1        0.0236
    100 H          12.1657   -1.8637    0.0000 H       1  UNL1        0.2098
    101 H          11.0477   -1.9506    0.0000 H       1  UNL1        0.0296
    102 H          10.3575   -1.5521    0.0000 H       1  UNL1        0.0296
    103 H           8.4651   -1.5427    0.0000 H       1  UNL1        0.0257
    104 H           7.8451   -2.1627    0.0000 H       1  UNL1        0.0257
    105 H           8.4651   -2.7827    0.0000 H       1  UNL1        0.0257
    106 H          10.3825   -3.2408    0.0000 H       1  UNL1        0.0308
    107 H          11.0728   -3.6393    0.0000 H       1  UNL1        0.0308
    108 H          15.2352    4.3777    0.0000 H       1  UNL1        0.0937
    109 H           8.5991   -3.0427    0.0000 H       1  UNL1        0.0938
    110 H          15.9229    2.2459    0.0000 H       1  UNL1        0.0671
    111 H           8.5991   -5.2827    0.0000 H       1  UNL1        0.0671
    112 H          12.2751   -2.4918    0.0000 H       1  UNL1        0.0571
    113 H          17.3164    2.4958    0.0000 H       1  UNL1        0.0648
    114 H           7.1962   -5.4727    0.0000 H       1  UNL1        0.0648
    115 H          16.8836    4.9094    0.0000 H       1  UNL1        0.0647
    116 H           6.8671   -3.0427    0.0000 H       1  UNL1        0.0647
    117 H          17.5713    2.7776    0.0000 H       1  UNL1        0.0647
    118 H           6.8671   -5.2827    0.0000 H       1  UNL1        0.0647
    119 H          15.2522    1.5042    0.0000 H       1  UNL1        0.2101
    120 H           9.4651   -5.7827    0.0000 H       1  UNL1        0.2101
    121 H           5.3905   -3.0550    0.0000 H       1  UNL1        0.0587
    122 H           5.7890   -3.7453    0.0000 H       1  UNL1        0.0587
    123 H          18.1254    4.5717    0.0000 H       1  UNL1        0.0584
    124 H          18.2927    5.3510    0.0000 H       1  UNL1        0.0584
    125 H          17.6234    1.5441    0.0000 H       1  UNL1        0.2100
    126 H           7.1962   -6.4727    0.0000 H       1  UNL1        0.2100
    127 H          13.4651   -4.5147    0.0000 H       1  UNL1        0.0274
    128 H          14.0851   -3.8947    0.0000 H       1  UNL1        0.0274
    129 H          13.4651   -3.2747    0.0000 H       1  UNL1        0.0274
    130 H          11.4282   -4.4508    0.0000 H       1  UNL1        0.0274
    131 H          11.6551   -5.2977    0.0000 H       1  UNL1        0.0274
    132 H          12.5021   -5.0708    0.0000 H       1  UNL1        0.0274
    133 H          18.7745    3.6176    0.0000 H       1  UNL1        0.2100
    134 H           5.4641   -4.8527    0.0000 H       1  UNL1        0.2100
    135 H          17.8535    6.4727    0.0000 H       1  UNL1        0.2095
    136 H           5.6720   -1.3527    0.0000 H       1  UNL1        0.0937
    137 H           5.1350   -0.0427    0.0000 H       1  UNL1        0.0671
    138 H           3.7320    0.1473    0.0000 H       1  UNL1        0.0647
    139 H           2.7924   -1.5550    0.0000 H       1  UNL1        0.0587
    140 H           3.1909   -2.2453    0.0000 H       1  UNL1        0.0587
    141 H           2.8660   -0.9727    0.0000 H       1  UNL1        0.0643
    142 H           6.0010    0.4573    0.0000 H       1  UNL1        0.2101
    143 H           3.7320    1.1473    0.0000 H       1  UNL1        0.2100
    144 H           2.0000   -0.4727    0.0000 H       1  UNL1        0.2100
@<TRIPOS>BOND
     1    27     1    1
     2     1   100    1
     3    36     2    1
     4    44     2    1
     5    37     3    1
     6    45     3    1
     7     4    44    1
     8     4    51    1
     9     5    45    1
    10     5    52    1
    11    46     6    1
    12     6   119    1
    13    47     7    1
    14     7   120    1
    15    49     8    1
    16     8   125    1
    17    50     9    1
    18     9   126    1
    19    53    10    1
    20    10   133    1
    21    54    11    1
    22    11   134    1
    23    12    56    1
    24    60    12    1
    25    13    57    1
    26    13   135    1
    27    14    60    1
    28    14    63    1
    29    61    15    1
    30    15   142    1
    31    62    16    1
    32    16   143    1
    33    64    17    1
    34    17   144    1
    35    18    19    1
    36    18    20    1
    37    18    24    1
    38    18    33    1
    39    19    22    1
    40    19    28    1
    41    19    34    1
    42    20    21    1
    43    20    26    1
    44    20    65    1
    45    21    23    1
    46    21    32    1
    47    21    35    1
    48    22    25    1
    49    22    27    1
    50    22    66    1
    51    23    29    1
    52    23    30    1
    53    23    67    1
    54    24    29    1
    55    24    68    1
    56    24    69    1
    57    25    31    1
    58    25    37    1
    59    25    70    1
    60    26    27    1
    61    26    71    1
    62    26    72    1
    63    27    73    1
    64    28    31    1
    65    28    74    1
    66    28    75    1
    67    29    76    1
    68    29    77    1
    69    30    36    1
    70    30    39    1
    71    30    40    1
    72    31    78    1
    73    31    79    1
    74    32    38    1
    75    32    80    1
    76    32    81    1
    77    33    82    1
    78    33    83    1
    79    33    84    1
    80    34    85    1
    81    34    86    1
    82    34    87    1
    83    35    88    1
    84    35    89    1
    85    35    90    1
    86    36    38    1
    87    36    91    1
    88    37    41    1
    89    37    42    1
    90    38    92    1
    91    38    93    1
    92    39    94    1
    93    39    95    1
    94    39    96    1
    95    40    97    1
    96    40    98    1
    97    40    99    1
    98    41    43    1
    99    41   101    1
   100    41   102    1
   101    42   103    1
   102    42   104    1
   103    42   105    1
   104    43    48    1
   105    43   106    1
   106    43   107    1
   107    44    46    1
   108    44   108    1
   109    45    47    1
   110    45   109    1
   111    46    49    1
   112    46   110    1
   113    47    50    1
   114    47   111    1
   115    48    55    2
   116    48   112    1
   117    49    53    1
   118    49   113    1
   119    50    54    1
   120    50   114    1
   121    51    53    1
   122    51    57    1
   123    51   115    1
   124    52    54    1
   125    52    56    1
   126    52   116    1
   127    53   117    1
   128    54   118    1
   129    55    58    1
   130    55    59    1
   131    56   121    1
   132    56   122    1
   133    57   123    1
   134    57   124    1
   135    58   127    1
   136    58   128    1
   137    58   129    1
   138    59   130    1
   139    59   131    1
   140    59   132    1
   141    60    61    1
   142    60   136    1
   143    61    62    1
   144    61   137    1
   145    62    64    1
   146    62   138    1
   147    63    64    1
   148    63   139    1
   149    63   140    1
   150    64   141    1
