@<TRIPOS>MOLECULE
IMPHY000195
 79 85 0 0 0
SMALL
GASTEIGER

@<TRIPOS>ATOM
      1 O           7.2066    1.1579    0.0000 O.3     1  UNL1       -0.4479
      2 O           6.6743    3.6035    0.0000 O.3     1  UNL1       -0.4914
      3 O           5.9340   -3.0475    0.0000 O.3     1  UNL1       -0.4523
      4 O           7.7556    3.6124    0.0000 O.3     1  UNL1       -0.4885
      5 O           8.9657    4.1739    0.0000 O.3     1  UNL1       -0.4913
      6 O           7.2316    0.1655    0.0000 O.2     1  UNL1       -0.2850
      7 O           7.5064   -4.2892    0.0000 O.3     1  UNL1       -0.5033
      8 N           2.8660    1.6592    0.0000 N.3     1  UNL1       -0.2978
      9 N           9.8338   -0.3345    0.0000 N.2     1  UNL1       -0.2790
     10 C           3.7341    1.1579    0.0000 C.3     1  UNL1        0.0397
     11 C           4.6022    1.6592    0.0000 C.ar    1  UNL1       -0.0231
     12 C           2.8660    2.6616    0.0000 C.3     1  UNL1        0.0032
     13 C           3.7341    3.1628    0.0000 C.3     1  UNL1       -0.0144
     14 C           4.6022    2.6616    0.0000 C.ar    1  UNL1       -0.0378
     15 C           3.7341    0.1555    0.0000 C.3     1  UNL1       -0.0079
     16 C           5.4704    1.1579    0.0000 C.ar    1  UNL1       -0.0107
     17 C           2.0000    1.1591    0.0000 C.3     1  UNL1       -0.0122
     18 C           5.4704    3.1628    0.0000 C.ar    1  UNL1       -0.0128
     19 C           4.2424   -0.6253    0.0000 C.ar    1  UNL1       -0.0453
     20 C           6.3385    1.6592    0.0000 C.ar    1  UNL1        0.1703
     21 C           6.3385    2.6616    0.0000 C.ar    1  UNL1        0.1624
     22 C           5.2438   -0.5814    0.0000 C.ar    1  UNL1       -0.0550
     23 C           3.7797   -1.5144    0.0000 C.ar    1  UNL1       -0.0550
     24 C           8.0976    1.6703    0.0000 C.ar    1  UNL1        0.1832
     25 C           8.9657    1.1691    0.0000 C.ar    1  UNL1        0.0531
     26 C           9.8338    1.6703    0.0000 C.ar    1  UNL1       -0.0291
     27 C           5.7826   -1.4268    0.0000 C.ar    1  UNL1       -0.0191
     28 C           4.3184   -2.3598    0.0000 C.ar    1  UNL1       -0.0191
     29 C          10.7020    1.1691    0.0000 C.3     1  UNL1       -0.0072
     30 C           5.3198   -2.3160    0.0000 C.ar    1  UNL1        0.1286
     31 C           8.0976    2.6727    0.0000 C.ar    1  UNL1        0.2048
     32 C           8.9657    0.1667    0.0000 C.2     1  UNL1        0.1166
     33 C          10.7020    0.1667    0.0000 C.3     1  UNL1        0.0445
     34 C           9.8338    2.6727    0.0000 C.ar    1  UNL1       -0.0122
     35 C           8.9657    3.1739    0.0000 C.ar    1  UNL1        0.1655
     36 C           6.0264    4.3653    0.0000 C.3     1  UNL1        0.0790
     37 C           8.0976   -0.3345    0.0000 C.2     1  UNL1        0.2116
     38 C           7.9431   -1.3162    0.0000 C.ar    1  UNL1        0.0275
     39 C           6.8657   -2.6778    0.0000 C.ar    1  UNL1        0.1703
     40 C           7.0114   -1.6860    0.0000 C.ar    1  UNL1       -0.0048
     41 C           8.7292   -1.9383    0.0000 C.ar    1  UNL1       -0.0472
     42 C           7.6518   -3.2998    0.0000 C.ar    1  UNL1        0.1591
     43 C           8.5835   -2.9300    0.0000 C.ar    1  UNL1       -0.0158
     44 C           8.3984    4.3784    0.0000 C.3     1  UNL1        0.0791
     45 C           9.8318    4.6739    0.0000 C.3     1  UNL1        0.0790
     46 H           2.9980    0.7329    0.0000 H       1  UNL1        0.0515
     47 H           2.6540    3.2442    0.0000 H       1  UNL1        0.0430
     48 H           2.2554    2.5539    0.0000 H       1  UNL1        0.0430
     49 H           4.1327    3.6377    0.0000 H       1  UNL1        0.0326
     50 H           3.3356    3.6377    0.0000 H       1  UNL1        0.0326
     51 H           3.1478    0.3572    0.0000 H       1  UNL1        0.0332
     52 H           4.3285    0.3319    0.0000 H       1  UNL1        0.0332
     53 H           5.4704    0.5379    0.0000 H       1  UNL1        0.0659
     54 H           1.6900    1.6961    0.0000 H       1  UNL1        0.0391
     55 H           1.4631    0.8492    0.0000 H       1  UNL1        0.0391
     56 H           2.3100    0.6222    0.0000 H       1  UNL1        0.0391
     57 H           5.4704    3.7828    0.0000 H       1  UNL1        0.0658
     58 H           5.5301   -0.0314    0.0000 H       1  UNL1        0.0621
     59 H           3.1602   -1.5416    0.0000 H       1  UNL1        0.0621
     60 H          11.3125    1.0614    0.0000 H       1  UNL1        0.0331
     61 H          10.9140    1.7517    0.0000 H       1  UNL1        0.0331
     62 H           6.4020   -1.3996    0.0000 H       1  UNL1        0.0654
     63 H           4.0321   -2.9098    0.0000 H       1  UNL1        0.0654
     64 H          10.9140   -0.4159    0.0000 H       1  UNL1        0.0511
     65 H          11.3125    0.2743    0.0000 H       1  UNL1        0.0511
     66 H          10.3708    2.9827    0.0000 H       1  UNL1        0.0658
     67 H           6.4987    4.7669    0.0000 H       1  UNL1        0.0660
     68 H           5.6247    4.8376    0.0000 H       1  UNL1        0.0660
     69 H           5.5541    3.9636    0.0000 H       1  UNL1        0.0660
     70 H           6.5252   -1.3012    0.0000 H       1  UNL1        0.0663
     71 H           9.3054   -1.7096    0.0000 H       1  UNL1        0.0626
     72 H           9.0697   -3.3148    0.0000 H       1  UNL1        0.0655
     73 H           8.8734    3.9799    0.0000 H       1  UNL1        0.0660
     74 H           8.7969    4.8534    0.0000 H       1  UNL1        0.0660
     75 H           7.9234    4.7770    0.0000 H       1  UNL1        0.0660
     76 H          10.1418    4.1370    0.0000 H       1  UNL1        0.0660
     77 H          10.3687    4.9839    0.0000 H       1  UNL1        0.0660
     78 H           9.5218    5.2108    0.0000 H       1  UNL1        0.0660
     79 H           7.9926   -4.6739    0.0000 H       1  UNL1        0.2923
@<TRIPOS>BOND
     1     1    20    1
     2     1    24    1
     3     2    21    1
     4     2    36    1
     5     3    30    1
     6     3    39    1
     7     4    31    1
     8     4    44    1
     9     5    35    1
    10     5    45    1
    11     6    37    2
    12     7    42    1
    13     7    79    1
    14     8    10    1
    15     8    12    1
    16     8    17    1
    17     9    32    2
    18     9    33    1
    19    10    11    1
    20    10    15    1
    21    10    46    1
    22    11    14   ar
    23    11    16   ar
    24    12    13    1
    25    12    47    1
    26    12    48    1
    27    13    14    1
    28    13    49    1
    29    13    50    1
    30    14    18   ar
    31    15    19    1
    32    15    51    1
    33    15    52    1
    34    16    20   ar
    35    16    53    1
    36    17    54    1
    37    17    55    1
    38    17    56    1
    39    18    21   ar
    40    18    57    1
    41    19    22   ar
    42    19    23   ar
    43    20    21   ar
    44    22    27   ar
    45    22    58    1
    46    23    28   ar
    47    23    59    1
    48    24    25   ar
    49    24    31   ar
    50    25    26   ar
    51    25    32    1
    52    26    29    1
    53    26    34   ar
    54    27    30   ar
    55    27    62    1
    56    28    30   ar
    57    28    63    1
    58    29    33    1
    59    29    60    1
    60    29    61    1
    61    31    35   ar
    62    32    37    1
    63    33    64    1
    64    33    65    1
    65    34    35   ar
    66    34    66    1
    67    36    67    1
    68    36    68    1
    69    36    69    1
    70    37    38    1
    71    38    40   ar
    72    38    41   ar
    73    39    40   ar
    74    39    42   ar
    75    40    70    1
    76    41    43   ar
    77    41    71    1
    78    42    43   ar
    79    43    72    1
    80    44    73    1
    81    44    74    1
    82    44    75    1
    83    45    76    1
    84    45    77    1
    85    45    78    1
