@<TRIPOS>MOLECULE
IMPHY007563
 170 178 0 0 0
SMALL
GASTEIGER

@<TRIPOS>ATOM
      1 O           6.8671   -5.7722    0.0000 O.3     1  UNL1       -0.3448
      2 O           8.6424    3.5822    0.0000 O.3     1  UNL1       -0.3423
      3 O           6.8270    4.6211    0.0000 O.3     1  UNL1       -0.3887
      4 O           9.3112   -5.0806    0.0000 O.3     1  UNL1       -0.3944
      5 O           5.1350   -5.7722    0.0000 O.3     1  UNL1       -0.3315
      6 O           7.7764    5.0822    0.0000 O.3     1  UNL1       -0.3461
      7 O           6.8671   -7.7722    0.0000 O.3     1  UNL1       -0.3378
      8 O          10.3745    4.5822    0.0000 O.3     1  UNL1       -0.3841
      9 O           5.1350   -8.7722    0.0000 O.3     1  UNL1       -0.3864
     10 O          10.3745    6.5822    0.0000 O.3     1  UNL1       -0.3391
     11 O           3.4030   -7.7722    0.0000 O.3     1  UNL1       -0.3860
     12 O           8.6424    7.5822    0.0000 O.3     1  UNL1       -0.3868
     13 O           6.0010   -9.2722    0.0000 O.3     1  UNL1       -0.3461
     14 O           2.5369   -6.2722    0.0000 O.3     1  UNL1       -0.4788
     15 O           3.4030   -4.7722    0.0000 O.2     1  UNL1       -0.2480
     16 O           9.5085    8.0822    0.0000 O.3     1  UNL1       -0.3440
     17 O           8.5991   -8.7722    0.0000 O.3     1  UNL1       -0.3841
     18 O           8.5991  -10.7723    0.0000 O.3     1  UNL1       -0.3864
     19 O          12.1066    7.5822    0.0000 O.3     1  UNL1       -0.4525
     20 O           6.8671  -11.7723    0.0000 O.3     1  UNL1       -0.3869
     21 O          12.1066    9.5822    0.0000 O.3     1  UNL1       -0.4537
     22 O          10.3745   10.5823    0.0000 O.3     1  UNL1       -0.4553
     23 O          12.9726    9.0822    0.0000 O.2     1  UNL1       -0.2512
     24 O          11.2405   11.0823    0.0000 O.2     1  UNL1       -0.2512
     25 O           8.6424   10.5823    0.0000 O.2     1  UNL1       -0.2512
     26 C           7.7681   -1.0720    0.0000 C.3     1  UNL1       -0.0194
     27 C           6.9040   -1.5754    0.0000 C.3     1  UNL1       -0.0257
     28 C           6.8920   -2.6169    0.0000 C.3     1  UNL1       -0.0249
     29 C           7.7643   -0.0720    0.0000 C.3     1  UNL1       -0.0051
     30 C           7.7920   -3.1412    0.0000 C.3     1  UNL1       -0.0255
     31 C           8.6801   -1.5754    0.0000 C.3     1  UNL1       -0.0463
     32 C           6.8963    0.4246    0.0000 C.2     1  UNL1       -0.0633
     33 C           6.8762    1.4661    0.0000 C.3     1  UNL1       -0.0110
     34 C           8.6921   -2.6169    0.0000 C.3     1  UNL1       -0.0485
     35 C           7.8046   -4.2261    0.0000 C.3     1  UNL1        0.0206
     36 C           7.7722    1.9973    0.0000 C.3     1  UNL1        0.0033
     37 C           8.6723    0.4383    0.0000 C.3     1  UNL1       -0.0428
     38 C           6.0361   -1.0787    0.0000 C.3     1  UNL1       -0.0306
     39 C           5.9421   -3.1412    0.0000 C.3     1  UNL1       -0.0447
     40 C           8.6763    1.4799    0.0000 C.3     1  UNL1       -0.0438
     41 C           8.7522   -0.8946    0.0000 C.3     1  UNL1       -0.0585
     42 C           6.8671   -4.7722    0.0000 C.3     1  UNL1        0.0695
     43 C           6.0322   -0.0787    0.0000 C.2     1  UNL1       -0.0836
     44 C           6.0279   -2.1136    0.0000 C.3     1  UNL1       -0.0590
     45 C           5.9295   -4.2261    0.0000 C.3     1  UNL1       -0.0254
     46 C           8.7497   -0.2419    0.0000 C.3     1  UNL1       -0.0553
     47 C           5.9223    1.9830    0.0000 C.3     1  UNL1       -0.0383
     48 C           7.7764    3.0822    0.0000 C.3     1  UNL1        0.0940
     49 C           5.9014    3.0678    0.0000 C.3     1  UNL1       -0.0059
     50 C           6.8347    3.6211    0.0000 C.3     1  UNL1        0.0870
     51 C           8.8046   -4.2184    0.0000 C.3     1  UNL1        0.0522
     52 C           8.3113   -5.0883    0.0000 C.3     1  UNL1       -0.0548
     53 C           8.6324    2.5072    0.0000 C.3     1  UNL1       -0.0566
     54 C           4.9015    3.0524    0.0000 C.3     1  UNL1       -0.0574
     55 C           5.3881    3.9260    0.0000 C.3     1  UNL1       -0.0574
     56 C           6.0010   -6.2722    0.0000 C.3     1  UNL1        0.1892
     57 C           8.6424    4.5822    0.0000 C.3     1  UNL1        0.1879
     58 C           6.0010   -7.2722    0.0000 C.3     1  UNL1        0.1407
     59 C           9.5085    5.0822    0.0000 C.3     1  UNL1        0.1345
     60 C           5.1350   -7.7722    0.0000 C.3     1  UNL1        0.1149
     61 C           9.5085    6.0822    0.0000 C.3     1  UNL1        0.1203
     62 C           4.2690   -6.2722    0.0000 C.3     1  UNL1        0.1859
     63 C           4.2690   -7.2722    0.0000 C.3     1  UNL1        0.1202
     64 C           7.7764    6.0822    0.0000 C.3     1  UNL1        0.0792
     65 C           8.6424    6.5822    0.0000 C.3     1  UNL1        0.1073
     66 C           6.8671   -8.7722    0.0000 C.3     1  UNL1        0.1881
     67 C           3.4030   -5.7722    0.0000 C.2     1  UNL1        0.3367
     68 C           7.7331   -9.2722    0.0000 C.3     1  UNL1        0.1341
     69 C          10.3745    7.5822    0.0000 C.3     1  UNL1        0.2005
     70 C           7.7331  -10.2723    0.0000 C.3     1  UNL1        0.1137
     71 C          11.2405    8.0822    0.0000 C.3     1  UNL1        0.1936
     72 C           6.0010  -10.2723    0.0000 C.3     1  UNL1        0.0792
     73 C           6.8671  -10.7723    0.0000 C.3     1  UNL1        0.1069
     74 C          11.2405    9.0822    0.0000 C.3     1  UNL1        0.1832
     75 C           9.5085    9.0822    0.0000 C.3     1  UNL1        0.0914
     76 C          10.3745    9.5822    0.0000 C.3     1  UNL1        0.1666
     77 C          12.9726    8.0822    0.0000 C.2     1  UNL1        0.3045
     78 C          12.1066   10.5823    0.0000 C.2     1  UNL1        0.3044
     79 C           9.5085   11.0823    0.0000 C.2     1  UNL1        0.3044
     80 C          13.8386    7.5822    0.0000 C.3     1  UNL1        0.0332
     81 C          12.9726   11.0823    0.0000 C.3     1  UNL1        0.0332
     82 C           9.5085   12.0823    0.0000 C.3     1  UNL1        0.0332
     83 H           7.4398   -1.8874    0.0000 H       1  UNL1        0.0315
     84 H           8.3314   -3.4471    0.0000 H       1  UNL1        0.0313
     85 H           9.2921   -1.6744    0.0000 H       1  UNL1        0.0271
     86 H           8.8824   -0.9893    0.0000 H       1  UNL1        0.0271
     87 H           6.3466    1.1437    0.0000 H       1  UNL1        0.0352
     88 H           8.9079   -3.1982    0.0000 H       1  UNL1        0.0268
     89 H           9.3017   -2.5038    0.0000 H       1  UNL1        0.0268
     90 H           8.8791   -0.1462    0.0000 H       1  UNL1        0.0274
     91 H           9.2836    0.5420    0.0000 H       1  UNL1        0.0274
     92 H           5.4251   -0.9734    0.0000 H       1  UNL1        0.0310
     93 H           5.8263   -1.6621    0.0000 H       1  UNL1        0.0310
     94 H           5.7398   -2.5551    0.0000 H       1  UNL1        0.0271
     95 H           5.3300   -3.2402    0.0000 H       1  UNL1        0.0271
     96 H           9.2868    1.3715    0.0000 H       1  UNL1        0.0272
     97 H           8.8876    2.0628    0.0000 H       1  UNL1        0.0272
     98 H           8.8623   -1.5048    0.0000 H       1  UNL1        0.0235
     99 H           9.3624   -0.7846    0.0000 H       1  UNL1        0.0235
    100 H           8.6422   -0.2844    0.0000 H       1  UNL1        0.0235
    101 H           7.4046   -5.0812    0.0000 H       1  UNL1        0.0603
    102 H           5.4941    0.2292    0.0000 H       1  UNL1        0.0572
    103 H           6.3400   -1.5779    0.0000 H       1  UNL1        0.0235
    104 H           5.4922   -1.8015    0.0000 H       1  UNL1        0.0235
    105 H           5.7158   -2.6493    0.0000 H       1  UNL1        0.0235
    106 H           5.3199   -4.1130    0.0000 H       1  UNL1        0.0290
    107 H           5.7137   -4.8074    0.0000 H       1  UNL1        0.0290
    108 H           8.6444   -0.8529    0.0000 H       1  UNL1        0.0238
    109 H           9.3607   -0.3472    0.0000 H       1  UNL1        0.0238
    110 H           8.8550    0.3691    0.0000 H       1  UNL1        0.0238
    111 H           5.3095    2.0773    0.0000 H       1  UNL1        0.0277
    112 H           5.7246    1.3954    0.0000 H       1  UNL1        0.0277
    113 H           8.3128    2.7712    0.0000 H       1  UNL1        0.0629
    114 H           7.3698    3.9342    0.0000 H       1  UNL1        0.0625
    115 H           9.3855   -4.0019    0.0000 H       1  UNL1        0.0563
    116 H           8.6922   -3.6087    0.0000 H       1  UNL1        0.0563
    117 H           7.7767   -5.4024    0.0000 H       1  UNL1        0.0237
    118 H           8.6254   -5.6228    0.0000 H       1  UNL1        0.0237
    119 H           8.8458   -4.7742    0.0000 H       1  UNL1        0.0237
    120 H           8.9486    1.9739    0.0000 H       1  UNL1        0.0236
    121 H           9.1657    2.8234    0.0000 H       1  UNL1        0.0236
    122 H           8.3162    3.0406    0.0000 H       1  UNL1        0.0236
    123 H           5.9202    4.2442    0.0000 H       1  UNL1        0.0236
    124 H           5.0699    4.4581    0.0000 H       1  UNL1        0.0236
    125 H           4.8560    3.6078    0.0000 H       1  UNL1        0.0236
    126 H           4.8920    3.6723    0.0000 H       1  UNL1        0.0236
    127 H           4.2816    3.0428    0.0000 H       1  UNL1        0.0236
    128 H           4.9111    2.4325    0.0000 H       1  UNL1        0.0236
    129 H           6.2877    4.9270    0.0000 H       1  UNL1        0.2099
    130 H           6.0010   -5.6523    0.0000 H       1  UNL1        0.0938
    131 H           9.9312   -5.0758    0.0000 H       1  UNL1        0.2094
    132 H           8.1055    4.2722    0.0000 H       1  UNL1        0.0937
    133 H           6.0010   -7.8922    0.0000 H       1  UNL1        0.0675
    134 H          10.0454    5.3922    0.0000 H       1  UNL1        0.0671
    135 H           4.5981   -8.0822    0.0000 H       1  UNL1        0.0648
    136 H           9.5085    6.7022    0.0000 H       1  UNL1        0.0651
    137 H           4.2690   -5.6523    0.0000 H       1  UNL1        0.0741
    138 H           3.7320   -6.9622    0.0000 H       1  UNL1        0.0652
    139 H           7.5644    6.6649    0.0000 H       1  UNL1        0.0587
    140 H           7.1658    5.9746    0.0000 H       1  UNL1        0.0587
    141 H           8.1055    6.8922    0.0000 H       1  UNL1        0.0643
    142 H          10.9114    4.8922    0.0000 H       1  UNL1        0.2101
    143 H           7.4040   -8.4622    0.0000 H       1  UNL1        0.0937
    144 H           4.5981   -9.0822    0.0000 H       1  UNL1        0.2100
    145 H           3.4030   -8.3922    0.0000 H       1  UNL1        0.2100
    146 H           8.1055    7.8922    0.0000 H       1  UNL1        0.2100
    147 H           8.2700   -9.5822    0.0000 H       1  UNL1        0.0671
    148 H           9.8376    7.2722    0.0000 H       1  UNL1        0.0950
    149 H           7.7331  -10.8923    0.0000 H       1  UNL1        0.0647
    150 H          11.7775    8.3922    0.0000 H       1  UNL1        0.0825
    151 H           2.0000   -5.9622    0.0000 H       1  UNL1        0.2951
    152 H           5.3905  -10.1646    0.0000 H       1  UNL1        0.0587
    153 H           5.7890  -10.8549    0.0000 H       1  UNL1        0.0587
    154 H           6.3301  -11.0823    0.0000 H       1  UNL1        0.0643
    155 H          11.2405    9.7022    0.0000 H       1  UNL1        0.0812
    156 H           9.1360   -9.0822    0.0000 H       1  UNL1        0.2101
    157 H           9.2964    9.6649    0.0000 H       1  UNL1        0.0599
    158 H           8.8979    8.9746    0.0000 H       1  UNL1        0.0599
    159 H           9.8376    9.8922    0.0000 H       1  UNL1        0.0796
    160 H           8.5991  -11.3923    0.0000 H       1  UNL1        0.2100
    161 H           6.3301  -12.0823    0.0000 H       1  UNL1        0.2100
    162 H          13.5286    7.0453    0.0000 H       1  UNL1        0.0342
    163 H          14.3755    7.2722    0.0000 H       1  UNL1        0.0342
    164 H          14.1486    8.1192    0.0000 H       1  UNL1        0.0342
    165 H          13.2826   10.5453    0.0000 H       1  UNL1        0.0342
    166 H          13.5095   11.3923    0.0000 H       1  UNL1        0.0342
    167 H          12.6626   11.6192    0.0000 H       1  UNL1        0.0342
    168 H          10.1285   12.0823    0.0000 H       1  UNL1        0.0342
    169 H           9.5085   12.7023    0.0000 H       1  UNL1        0.0342
    170 H           8.8885   12.0823    0.0000 H       1  UNL1        0.0342
@<TRIPOS>BOND
     1     1    42    1
     2     1    56    1
     3     2    48    1
     4     2    57    1
     5     3    50    1
     6     3   129    1
     7     4    51    1
     8     4   131    1
     9     5    56    1
    10     5    62    1
    11     6    57    1
    12     6    64    1
    13     7    58    1
    14     7    66    1
    15     8    59    1
    16     8   142    1
    17     9    60    1
    18     9   144    1
    19    10    61    1
    20    10    69    1
    21    11    63    1
    22    11   145    1
    23    12    65    1
    24    12   146    1
    25    13    66    1
    26    13    72    1
    27    14    67    1
    28    14   151    1
    29    15    67    2
    30    16    69    1
    31    16    75    1
    32    17    68    1
    33    17   156    1
    34    18    70    1
    35    18   160    1
    36    19    71    1
    37    19    77    1
    38    20    73    1
    39    20   161    1
    40    21    74    1
    41    21    78    1
    42    22    76    1
    43    22    79    1
    44    23    77    2
    45    24    78    2
    46    25    79    2
    47    26    27    1
    48    26    29    1
    49    26    31    1
    50    26    41    1
    51    27    28    1
    52    27    38    1
    53    27    83    1
    54    28    30    1
    55    28    39    1
    56    28    44    1
    57    29    32    1
    58    29    37    1
    59    29    46    1
    60    30    34    1
    61    30    35    1
    62    30    84    1
    63    31    34    1
    64    31    85    1
    65    31    86    1
    66    32    33    1
    67    32    43    2
    68    33    36    1
    69    33    47    1
    70    33    87    1
    71    34    88    1
    72    34    89    1
    73    35    42    1
    74    35    51    1
    75    35    52    1
    76    36    40    1
    77    36    48    1
    78    36    53    1
    79    37    40    1
    80    37    90    1
    81    37    91    1
    82    38    43    1
    83    38    92    1
    84    38    93    1
    85    39    45    1
    86    39    94    1
    87    39    95    1
    88    40    96    1
    89    40    97    1
    90    41    98    1
    91    41    99    1
    92    41   100    1
    93    42    45    1
    94    42   101    1
    95    43   102    1
    96    44   103    1
    97    44   104    1
    98    44   105    1
    99    45   106    1
   100    45   107    1
   101    46   108    1
   102    46   109    1
   103    46   110    1
   104    47    49    1
   105    47   111    1
   106    47   112    1
   107    48    50    1
   108    48   113    1
   109    49    50    1
   110    49    54    1
   111    49    55    1
   112    50   114    1
   113    51   115    1
   114    51   116    1
   115    52   117    1
   116    52   118    1
   117    52   119    1
   118    53   120    1
   119    53   121    1
   120    53   122    1
   121    54   126    1
   122    54   127    1
   123    54   128    1
   124    55   123    1
   125    55   124    1
   126    55   125    1
   127    56    58    1
   128    56   130    1
   129    57    59    1
   130    57   132    1
   131    58    60    1
   132    58   133    1
   133    59    61    1
   134    59   134    1
   135    60    63    1
   136    60   135    1
   137    61    65    1
   138    61   136    1
   139    62    63    1
   140    62    67    1
   141    62   137    1
   142    63   138    1
   143    64    65    1
   144    64   139    1
   145    64   140    1
   146    65   141    1
   147    66    68    1
   148    66   143    1
   149    68    70    1
   150    68   147    1
   151    69    71    1
   152    69   148    1
   153    70    73    1
   154    70   149    1
   155    71    74    1
   156    71   150    1
   157    72    73    1
   158    72   152    1
   159    72   153    1
   160    73   154    1
   161    74    76    1
   162    74   155    1
   163    75    76    1
   164    75   157    1
   165    75   158    1
   166    76   159    1
   167    77    80    1
   168    78    81    1
   169    79    82    1
   170    80   162    1
   171    80   163    1
   172    80   164    1
   173    81   165    1
   174    81   166    1
   175    81   167    1
   176    82   168    1
   177    82   169    1
   178    82   170    1
