@<TRIPOS>MOLECULE
IMPHY010548
 19 20 0 0 0
SMALL
GASTEIGER

@<TRIPOS>ATOM
      1 O           4.6660    1.0000    0.0000 O.3     1  UNL1       -0.4529
      2 O           6.3981    1.0000    0.0000 O.3     1  UNL1       -0.3509
      3 O           6.3981   -1.0000    0.0000 O.2     1  UNL1       -0.2686
      4 N           4.6660   -1.0000    0.0000 N.am    1  UNL1       -0.2774
      5 C           3.8000   -0.5000    0.0000 C.ar    1  UNL1        0.0759
      6 C           3.8000    0.5000    0.0000 C.ar    1  UNL1        0.1456
      7 C           5.5321    0.5000    0.0000 C.3     1  UNL1        0.2772
      8 C           5.5321   -0.5000    0.0000 C.2     1  UNL1        0.2861
      9 C           2.9061   -1.0347    0.0000 C.ar    1  UNL1       -0.0369
     10 C           2.9061    1.0347    0.0000 C.ar    1  UNL1       -0.0180
     11 C           2.0000   -0.5208    0.0000 C.ar    1  UNL1       -0.0598
     12 C           2.0000    0.5208    0.0000 C.ar    1  UNL1       -0.0582
     13 H           5.5321    1.1200    0.0000 H       1  UNL1        0.1159
     14 H           4.6660   -1.6200    0.0000 H       1  UNL1        0.1551
     15 H           2.9132   -1.6546    0.0000 H       1  UNL1        0.0637
     16 H           2.9132    1.6546    0.0000 H       1  UNL1        0.0655
     17 H           1.4643   -0.8329    0.0000 H       1  UNL1        0.0618
     18 H           1.4643    0.8329    0.0000 H       1  UNL1        0.0619
     19 H           6.3981    1.6200    0.0000 H       1  UNL1        0.2140
@<TRIPOS>BOND
     1     1     6    1
     2     1     7    1
     3     2     7    1
     4     2    19    1
     5     3     8    2
     6     4     5    1
     7     4     8   am
     8     4    14    1
     9     5     6   ar
    10     5     9   ar
    11     6    10   ar
    12     7     8    1
    13     7    13    1
    14     9    11   ar
    15     9    15    1
    16    10    12   ar
    17    10    16    1
    18    11    12   ar
    19    11    17    1
    20    12    18    1
