@<TRIPOS>MOLECULE
IMPHY015553
 19 18 0 0 0
SMALL
GASTEIGER

@<TRIPOS>ATOM
      1 S           2.8660   -0.0670    0.0000 S.O2    1  UNL1       -0.0337
      2 S           8.0622    0.9330    0.0000 S.2     1  UNL1        0.0203
      3 O           2.3660    0.7990    0.0000 O.2     1  UNL1       -0.1746
      4 O           3.3660   -0.9330    0.0000 O.2     1  UNL1       -0.1746
      5 N           6.3301   -0.0670    0.0000 N.2     1  UNL1       -0.2345
      6 C           3.7320    0.4330    0.0000 C.3     1  UNL1        0.0671
      7 C           4.5981   -0.0670    0.0000 C.3     1  UNL1       -0.0133
      8 C           5.4641    0.4330    0.0000 C.3     1  UNL1        0.0510
      9 C           2.0000   -0.5670    0.0000 C.3     1  UNL1        0.0544
     10 C           7.1962    0.4330    0.0000 C.1     1  UNL1        0.0358
     11 H           4.1306    0.9080    0.0000 H       1  UNL1        0.0500
     12 H           3.3335    0.9080    0.0000 H       1  UNL1        0.0500
     13 H           4.1996   -0.5419    0.0000 H       1  UNL1        0.0299
     14 H           4.9966   -0.5419    0.0000 H       1  UNL1        0.0299
     15 H           5.8626    0.9080    0.0000 H       1  UNL1        0.0516
     16 H           5.0656    0.9080    0.0000 H       1  UNL1        0.0516
     17 H           1.6900   -0.0301    0.0000 H       1  UNL1        0.0464
     18 H           1.4631   -0.8770    0.0000 H       1  UNL1        0.0464
     19 H           2.3100   -1.1039    0.0000 H       1  UNL1        0.0464
@<TRIPOS>BOND
     1     1     3    2
     2     1     4    2
     3     1     6    1
     4     1     9    1
     5     2    10    2
     6     5     8    1
     7     5    10    2
     8     6     7    1
     9     6    11    1
    10     6    12    1
    11     7     8    1
    12     7    13    1
    13     7    14    1
    14     8    15    1
    15     8    16    1
    16     9    17    1
    17     9    18    1
    18     9    19    1
