@<TRIPOS>MOLECULE
IMPHY016373
 22 22 0 0 0
SMALL
GASTEIGER

@<TRIPOS>ATOM
      1 O           2.0000   -2.0000    0.0000 O.3     1  UNL1       -0.4951
      2 O           5.4641    3.0000    0.0000 O.2     1  UNL1       -0.2963
      3 C           3.7320   -0.0000    0.0000 C.ar    1  UNL1       -0.0215
      4 C           2.8660   -1.5000    0.0000 C.ar    1  UNL1        0.1207
      5 C           2.8660   -0.5000    0.0000 C.ar    1  UNL1       -0.0128
      6 C           4.5981   -0.5000    0.0000 C.ar    1  UNL1       -0.0544
      7 C           3.7320   -2.0000    0.0000 C.ar    1  UNL1       -0.0199
      8 C           4.5981   -1.5000    0.0000 C.ar    1  UNL1       -0.0577
      9 C           3.7320    1.0000    0.0000 C.2     1  UNL1       -0.0515
     10 C           4.5981    1.5000    0.0000 C.2     1  UNL1       -0.0219
     11 C           2.0000   -3.0000    0.0000 C.3     1  UNL1        0.0788
     12 C           4.5981    2.5000    0.0000 C.2     1  UNL1        0.1431
     13 H           2.3291   -0.1900    0.0000 H       1  UNL1        0.0660
     14 H           5.1350   -0.1900    0.0000 H       1  UNL1        0.0623
     15 H           3.7320   -2.6200    0.0000 H       1  UNL1        0.0654
     16 H           5.1350   -1.8100    0.0000 H       1  UNL1        0.0619
     17 H           3.1951    1.3100    0.0000 H       1  UNL1        0.0624
     18 H           5.1350    1.1900    0.0000 H       1  UNL1        0.0650
     19 H           1.3800   -3.0000    0.0000 H       1  UNL1        0.0660
     20 H           2.0000   -3.6200    0.0000 H       1  UNL1        0.0660
     21 H           2.6200   -3.0000    0.0000 H       1  UNL1        0.0660
     22 H           4.0611    2.8100    0.0000 H       1  UNL1        0.1075
@<TRIPOS>BOND
     1     1     4    1
     2     1    11    1
     3     2    12    2
     4     3     5   ar
     5     3     6   ar
     6     3     9    1
     7     4     5   ar
     8     4     7   ar
     9     5    13    1
    10     6     8   ar
    11     6    14    1
    12     7     8   ar
    13     7    15    1
    14     8    16    1
    15     9    10    2
    16     9    17    1
    17    10    12    1
    18    10    18    1
    19    11    19    1
    20    11    20    1
    21    11    21    1
    22    12    22    1
