@<TRIPOS>MOLECULE
IMPHY006106
 39 41 0 0 0
SMALL
GASTEIGER

@<TRIPOS>ATOM
      1 O           6.0682   -0.1754    0.0000 O.2     1  UNL1       -0.4470
      2 O           4.3198   -1.2100    0.0000 O.3     1  UNL1       -0.4885
      3 O           7.8003    1.8246    0.0000 O.3     1  UNL1       -0.5007
      4 O           4.3198    2.8592    0.0000 O.3     1  UNL1       -0.5058
      5 O           6.0682    2.8246    0.0000 O.2     1  UNL1       -0.2830
      6 O           2.5381   -0.1995    0.0000 O.3     1  UNL1       -0.5031
      7 O           8.6663   -2.6754    0.0000 O.3     1  UNL1       -0.4914
      8 O          10.3984   -1.6754    0.0000 O.3     1  UNL1       -0.5033
      9 C           5.2022    1.3246    0.0000 C.ar    1  UNL1        0.1128
     10 C           5.2022    0.3246    0.0000 C.ar    1  UNL1        0.1881
     11 C           6.9343    0.3246    0.0000 C.ar    1  UNL1        0.1809
     12 C           7.8003   -0.1754    0.0000 C.ar    1  UNL1        0.0247
     13 C           6.0682    1.8246    0.0000 C.ar    1  UNL1        0.2380
     14 C           6.9343    1.3246    0.0000 C.ar    1  UNL1        0.2082
     15 C           4.3083   -0.2101    0.0000 C.ar    1  UNL1        0.2049
     16 C           4.3083    1.8593    0.0000 C.ar    1  UNL1        0.1350
     17 C           3.4022    0.3038    0.0000 C.ar    1  UNL1        0.1657
     18 C           3.4022    1.3454    0.0000 C.ar    1  UNL1        0.0259
     19 C           7.8003   -1.1754    0.0000 C.ar    1  UNL1       -0.0055
     20 C           8.6663    0.3246    0.0000 C.ar    1  UNL1       -0.0473
     21 C           8.6663   -1.6754    0.0000 C.ar    1  UNL1        0.1619
     22 C           9.5323   -0.1754    0.0000 C.ar    1  UNL1       -0.0159
     23 C           9.5323   -1.1754    0.0000 C.ar    1  UNL1        0.1585
     24 C           3.4597   -1.7200    0.0000 C.3     1  UNL1        0.0791
     25 C           9.5323   -3.1754    0.0000 C.3     1  UNL1        0.0790
     26 H           2.8665    1.6575    0.0000 H       1  UNL1        0.0692
     27 H           7.2634   -1.4854    0.0000 H       1  UNL1        0.0662
     28 H           8.6663    0.9446    0.0000 H       1  UNL1        0.0626
     29 H          10.0693    0.1346    0.0000 H       1  UNL1        0.0655
     30 H           7.8003    2.4446    0.0000 H       1  UNL1        0.2924
     31 H           3.7865    3.1754    0.0000 H       1  UNL1        0.2922
     32 H           2.0000    0.1084    0.0000 H       1  UNL1        0.2923
     33 H           3.1435   -1.1866    0.0000 H       1  UNL1        0.0660
     34 H           2.9263   -2.0362    0.0000 H       1  UNL1        0.0660
     35 H           3.7758   -2.2533    0.0000 H       1  UNL1        0.0660
     36 H          10.9353   -1.3654    0.0000 H       1  UNL1        0.2923
     37 H           9.2224   -3.7123    0.0000 H       1  UNL1        0.0660
     38 H          10.0693   -3.4854    0.0000 H       1  UNL1        0.0660
     39 H           9.8424   -2.6385    0.0000 H       1  UNL1        0.0660
@<TRIPOS>BOND
     1     1    10   ar
     2     1    11   ar
     3     2    15    1
     4     2    24    1
     5     3    14    1
     6     3    30    1
     7     4    16    1
     8     4    31    1
     9     5    13    2
    10     6    17    1
    11     6    32    1
    12     7    21    1
    13     7    25    1
    14     8    23    1
    15     8    36    1
    16     9    10   ar
    17     9    13   ar
    18     9    16   ar
    19    10    15   ar
    20    11    12    1
    21    11    14   ar
    22    12    19   ar
    23    12    20   ar
    24    13    14   ar
    25    15    17   ar
    26    16    18   ar
    27    17    18   ar
    28    18    26    1
    29    19    21   ar
    30    19    27    1
    31    20    22   ar
    32    20    28    1
    33    21    23   ar
    34    22    23   ar
    35    22    29    1
    36    24    33    1
    37    24    34    1
    38    24    35    1
    39    25    37    1
    40    25    38    1
    41    25    39    1
