@<TRIPOS>MOLECULE
IMPHY002627
 100 104 0 0 0
SMALL
GASTEIGER

@<TRIPOS>ATOM
      1 O           8.0703   -2.6344    0.0000 O.3     1  UNL1       -0.4583
      2 O           7.2101   -1.1311    0.0000 O.2     1  UNL1       -0.2456
      3 O           2.0101   -2.1110    0.0000 O.3     1  UNL1       -0.4914
      4 O           2.0024   -4.1110    0.0000 O.3     1  UNL1       -0.5033
      5 C          13.4634    0.4180    0.0000 C.3     1  UNL1       -0.0259
      6 C          13.4634   -0.5820    0.0000 C.3     1  UNL1       -0.0323
      7 C          12.5974   -1.0820    0.0000 C.3     1  UNL1       -0.0344
      8 C          11.7313   -0.5820    0.0000 C.3     1  UNL1       -0.0323
      9 C          10.8213   -1.0889    0.0000 C.3     1  UNL1       -0.0259
     10 C          14.4096    0.7227    0.0000 C.3     1  UNL1       -0.0328
     11 C          12.5974    0.9180    0.0000 C.3     1  UNL1       -0.0468
     12 C          10.8133   -2.1305    0.0000 C.3     1  UNL1       -0.0320
     13 C          11.7313    0.4180    0.0000 C.3     1  UNL1       -0.0489
     14 C          14.4096   -0.8868    0.0000 C.3     1  UNL1       -0.0492
     15 C          12.6134   -2.1236    0.0000 C.3     1  UNL1       -0.0494
     16 C          14.9932   -0.0820    0.0000 C.3     1  UNL1       -0.0492
     17 C          11.7154   -2.6513    0.0000 C.3     1  UNL1       -0.0493
     18 C           9.8945   -0.5248    0.0000 C.3     1  UNL1       -0.0438
     19 C          13.4634    1.4180    0.0000 C.3     1  UNL1       -0.0590
     20 C          14.7203    1.6732    0.0000 C.3     1  UNL1       -0.0405
     21 C           9.8779   -2.6802    0.0000 C.3     1  UNL1       -0.0123
     22 C          10.8290   -0.0889    0.0000 C.3     1  UNL1       -0.0590
     23 C           8.9466   -1.0528    0.0000 C.3     1  UNL1       -0.0151
     24 C           8.9382   -2.1377    0.0000 C.3     1  UNL1        0.1037
     25 C          15.6988    1.8794    0.0000 C.3     1  UNL1       -0.0499
     26 C          14.0524    2.4175    0.0000 C.3     1  UNL1       -0.0621
     27 C          16.0094    2.8300    0.0000 C.3     1  UNL1       -0.0500
     28 C          16.9879    3.0362    0.0000 C.3     1  UNL1       -0.0415
     29 C           7.2062   -2.1310    0.0000 C.2     1  UNL1        0.3322
     30 C          17.2986    3.9867    0.0000 C.3     1  UNL1       -0.0441
     31 C          17.6558    2.2919    0.0000 C.3     1  UNL1       -0.0622
     32 C           6.3383   -2.6277    0.0000 C.2     1  UNL1        0.0231
     33 C          18.2771    4.1929    0.0000 C.3     1  UNL1       -0.0624
     34 C          16.6308    4.7310    0.0000 C.3     1  UNL1       -0.0624
     35 C           5.4742   -2.1244    0.0000 C.2     1  UNL1       -0.0477
     36 C           4.6062   -2.6210    0.0000 C.ar    1  UNL1       -0.0211
     37 C           3.7421   -2.1177    0.0000 C.ar    1  UNL1       -0.0092
     38 C           4.6024   -3.6210    0.0000 C.ar    1  UNL1       -0.0509
     39 C           2.8742   -2.6143    0.0000 C.ar    1  UNL1        0.1618
     40 C           3.7344   -4.1177    0.0000 C.ar    1  UNL1       -0.0160
     41 C           2.8703   -3.6143    0.0000 C.ar    1  UNL1        0.1585
     42 C           2.0140   -1.1110    0.0000 C.3     1  UNL1        0.0790
     43 H          13.5533   -1.4273    0.0000 H       1  UNL1        0.0309
     44 H          13.3367   -1.5014    0.0000 H       1  UNL1        0.0306
     45 H          12.4675   -0.1570    0.0000 H       1  UNL1        0.0309
     46 H          15.2493    0.8546    0.0000 H       1  UNL1        0.0309
     47 H          12.9959    1.3929    0.0000 H       1  UNL1        0.0271
     48 H          12.1988    1.3929    0.0000 H       1  UNL1        0.0271
     49 H          10.8166   -2.9805    0.0000 H       1  UNL1        0.0307
     50 H          11.5193    1.0006    0.0000 H       1  UNL1        0.0268
     51 H          11.1208    0.3103    0.0000 H       1  UNL1        0.0268
     52 H          14.1586   -1.4537    0.0000 H       1  UNL1        0.0268
     53 H          14.9470   -1.1960    0.0000 H       1  UNL1        0.0268
     54 H          12.8315   -2.7040    0.0000 H       1  UNL1        0.0268
     55 H          13.2226   -2.0080    0.0000 H       1  UNL1        0.0268
     56 H          15.4541   -0.4968    0.0000 H       1  UNL1        0.0268
     57 H          15.4541    0.3327    0.0000 H       1  UNL1        0.0268
     58 H          11.3181   -3.1273    0.0000 H       1  UNL1        0.0268
     59 H          12.1163   -3.1242    0.0000 H       1  UNL1        0.0268
     60 H          10.3027   -0.0582    0.0000 H       1  UNL1        0.0272
     61 H           9.5046   -0.0428    0.0000 H       1  UNL1        0.0272
     62 H          14.0834    1.4180    0.0000 H       1  UNL1        0.0235
     63 H          13.4634    2.0380    0.0000 H       1  UNL1        0.0235
     64 H          12.8434    1.4180    0.0000 H       1  UNL1        0.0235
     65 H          14.9129    2.2625    0.0000 H       1  UNL1        0.0301
     66 H           9.4806   -3.1562    0.0000 H       1  UNL1        0.0304
     67 H          10.2788   -3.1531    0.0000 H       1  UNL1        0.0304
     68 H          11.4490   -0.0937    0.0000 H       1  UNL1        0.0235
     69 H          10.8338    0.5311    0.0000 H       1  UNL1        0.0235
     70 H          10.2091   -0.0841    0.0000 H       1  UNL1        0.0235
     71 H           8.7421   -0.4675    0.0000 H       1  UNL1        0.0301
     72 H           8.3350   -1.1541    0.0000 H       1  UNL1        0.0301
     73 H           8.4031   -1.8246    0.0000 H       1  UNL1        0.0734
     74 H          15.7193    1.2598    0.0000 H       1  UNL1        0.0268
     75 H          16.3126    1.7921    0.0000 H       1  UNL1        0.0268
     76 H          14.5139    2.8316    0.0000 H       1  UNL1        0.0233
     77 H          13.6384    2.8790    0.0000 H       1  UNL1        0.0233
     78 H          13.5910    2.0034    0.0000 H       1  UNL1        0.0233
     79 H          15.9889    3.4496    0.0000 H       1  UNL1        0.0268
     80 H          15.3956    2.9173    0.0000 H       1  UNL1        0.0268
     81 H          17.5946    3.1640    0.0000 H       1  UNL1        0.0301
     82 H          16.6919    3.8588    0.0000 H       1  UNL1        0.0298
     83 H          17.1943    1.8778    0.0000 H       1  UNL1        0.0232
     84 H          18.0699    1.8304    0.0000 H       1  UNL1        0.0232
     85 H          18.1173    2.7059    0.0000 H       1  UNL1        0.0232
     86 H          17.0922    5.1450    0.0000 H       1  UNL1        0.0232
     87 H          16.2167    5.1925    0.0000 H       1  UNL1        0.0232
     88 H          18.4050    3.5862    0.0000 H       1  UNL1        0.0232
     89 H          18.8838    4.3208    0.0000 H       1  UNL1        0.0232
     90 H          18.1493    4.7996    0.0000 H       1  UNL1        0.0232
     91 H          16.1693    4.3169    0.0000 H       1  UNL1        0.0232
     92 H           6.3359   -3.2477    0.0000 H       1  UNL1        0.0689
     93 H           5.4766   -1.5044    0.0000 H       1  UNL1        0.0626
     94 H           3.7445   -1.4977    0.0000 H       1  UNL1        0.0661
     95 H           5.1381   -3.9331    0.0000 H       1  UNL1        0.0625
     96 H           3.7320   -4.7377    0.0000 H       1  UNL1        0.0655
     97 H           2.0000   -4.7310    0.0000 H       1  UNL1        0.2923
     98 H           2.6340   -1.1134    0.0000 H       1  UNL1        0.0660
     99 H           2.0163   -0.4910    0.0000 H       1  UNL1        0.0660
    100 H           1.3940   -1.1086    0.0000 H       1  UNL1        0.0660
@<TRIPOS>BOND
     1    24     1    1
     2     1    29    1
     3     2    29    2
     4     3    39    1
     5     3    42    1
     6     4    41    1
     7     4    97    1
     8     5     6    1
     9     5    10    1
    10     5    11    1
    11     5    19    1
    12     6     7    1
    13     6    14    1
    14     6    43    1
    15     7     8    1
    16     7    15    1
    17     7    44    1
    18     8     9    1
    19     8    13    1
    20     8    45    1
    21     9    12    1
    22     9    18    1
    23     9    22    1
    24    10    16    1
    25    10    20    1
    26    10    46    1
    27    11    13    1
    28    11    47    1
    29    11    48    1
    30    12    17    1
    31    12    21    1
    32    12    49    1
    33    13    50    1
    34    13    51    1
    35    14    16    1
    36    14    52    1
    37    14    53    1
    38    15    17    1
    39    15    54    1
    40    15    55    1
    41    16    56    1
    42    16    57    1
    43    17    58    1
    44    17    59    1
    45    18    23    1
    46    18    60    1
    47    18    61    1
    48    19    62    1
    49    19    63    1
    50    19    64    1
    51    20    25    1
    52    20    26    1
    53    20    65    1
    54    21    24    1
    55    21    66    1
    56    21    67    1
    57    22    68    1
    58    22    69    1
    59    22    70    1
    60    23    24    1
    61    23    71    1
    62    23    72    1
    63    24    73    1
    64    25    27    1
    65    25    74    1
    66    25    75    1
    67    26    76    1
    68    26    77    1
    69    26    78    1
    70    27    28    1
    71    27    79    1
    72    27    80    1
    73    28    30    1
    74    28    31    1
    75    28    81    1
    76    29    32    1
    77    30    33    1
    78    30    34    1
    79    30    82    1
    80    31    83    1
    81    31    84    1
    82    31    85    1
    83    32    35    2
    84    32    92    1
    85    33    88    1
    86    33    89    1
    87    33    90    1
    88    34    86    1
    89    34    87    1
    90    34    91    1
    91    35    36    1
    92    35    93    1
    93    36    37   ar
    94    36    38   ar
    95    37    39   ar
    96    37    94    1
    97    38    40   ar
    98    38    95    1
    99    39    41   ar
   100    40    41   ar
   101    40    96    1
   102    42    98    1
   103    42    99    1
   104    42   100    1
