@<TRIPOS>MOLECULE
IMPHY001434
 83 86 0 0 0
SMALL
GASTEIGER

@<TRIPOS>ATOM
      1 O           9.1857   -2.4287    0.0000 O.3     1  UNL1       -0.3909
      2 O           2.5357   -3.2258    0.0000 O.3     1  UNL1       -0.3912
      3 C           7.9288   -0.1735    0.0000 C.3     1  UNL1       -0.0138
      4 C           7.9288   -1.1735    0.0000 C.3     1  UNL1        0.0247
      5 C           8.8750    0.1313    0.0000 C.3     1  UNL1       -0.0295
      6 C           8.8750   -1.4782    0.0000 C.3     1  UNL1        0.0654
      7 C           5.2868   -1.6803    0.0000 C.3     1  UNL1       -0.0033
      8 C           7.0628   -1.6735    0.0000 C.2     1  UNL1       -0.0390
      9 C           9.4586   -0.6735    0.0000 C.3     1  UNL1       -0.0224
     10 C           5.2787   -2.7219    0.0000 C.3     1  UNL1       -0.0207
     11 C           7.0628    0.3265    0.0000 C.3     1  UNL1       -0.0276
     12 C           6.1968   -1.1735    0.0000 C.2     1  UNL1       -0.0416
     13 C           4.3433   -3.2716    0.0000 C.3     1  UNL1       -0.0050
     14 C           9.1857    1.0818    0.0000 C.3     1  UNL1       -0.0401
     15 C           7.9288    0.8265    0.0000 C.3     1  UNL1       -0.0581
     16 C           7.9288   -2.1735    0.0000 C.3     1  UNL1       -0.0526
     17 C           4.3599   -1.1162    0.0000 C.3     1  UNL1       -0.0410
     18 C           6.1968   -0.1735    0.0000 C.2     1  UNL1       -0.0795
     19 C           6.1808   -3.2427    0.0000 C.3     1  UNL1       -0.0300
     20 C           7.0789   -2.7150    0.0000 C.2     1  UNL1       -0.0796
     21 C           3.4037   -2.7291    0.0000 C.3     1  UNL1        0.0607
     22 C           3.4120   -1.6442    0.0000 C.3     1  UNL1       -0.0255
     23 C           5.2945   -0.6803    0.0000 C.3     1  UNL1       -0.0553
     24 C          10.1642    1.2880    0.0000 C.3     1  UNL1       -0.0465
     25 C           3.8467   -4.1396    0.0000 C.3     1  UNL1       -0.0572
     26 C           4.8466   -4.1357    0.0000 C.3     1  UNL1       -0.0572
     27 C           8.5179    1.8261    0.0000 C.3     1  UNL1       -0.0621
     28 C          10.4749    2.2385    0.0000 C.3     1  UNL1       -0.0315
     29 C          11.4534    2.4448    0.0000 C.2     1  UNL1       -0.0740
     30 C          11.7640    3.3953    0.0000 C.3     1  UNL1       -0.0258
     31 C          12.1212    1.7004    0.0000 C.2     1  UNL1       -0.0992
     32 C          12.7425    3.6015    0.0000 C.3     1  UNL1       -0.0590
     33 C          11.0962    4.1396    0.0000 C.3     1  UNL1       -0.0590
     34 H           9.7148    0.2632    0.0000 H       1  UNL1        0.0310
     35 H           9.4875   -1.5744    0.0000 H       1  UNL1        0.0602
     36 H           9.9195   -1.0882    0.0000 H       1  UNL1        0.0293
     37 H           9.9195   -0.2587    0.0000 H       1  UNL1        0.0293
     38 H           5.2820   -3.5719    0.0000 H       1  UNL1        0.0318
     39 H           7.4613    0.8015    0.0000 H       1  UNL1        0.0313
     40 H           6.6643    0.8015    0.0000 H       1  UNL1        0.0313
     41 H           9.3783    1.6711    0.0000 H       1  UNL1        0.0301
     42 H           8.5488    0.8265    0.0000 H       1  UNL1        0.0236
     43 H           7.9288    1.4465    0.0000 H       1  UNL1        0.0236
     44 H           7.3088    0.8265    0.0000 H       1  UNL1        0.0236
     45 H           7.3088   -2.1735    0.0000 H       1  UNL1        0.0239
     46 H           7.9288   -2.7935    0.0000 H       1  UNL1        0.0239
     47 H           8.5488   -2.1735    0.0000 H       1  UNL1        0.0239
     48 H           4.7681   -0.6496    0.0000 H       1  UNL1        0.0275
     49 H           3.9700   -0.6342    0.0000 H       1  UNL1        0.0275
     50 H           5.6598    0.1365    0.0000 H       1  UNL1        0.0575
     51 H           5.7835   -3.7187    0.0000 H       1  UNL1        0.0311
     52 H           6.5818   -3.7156    0.0000 H       1  UNL1        0.0311
     53 H           7.6193   -3.0187    0.0000 H       1  UNL1        0.0575
     54 H           3.4025   -3.3491    0.0000 H       1  UNL1        0.0599
     55 H           3.2075   -1.0589    0.0000 H       1  UNL1        0.0290
     56 H           2.8004   -1.7456    0.0000 H       1  UNL1        0.0290
     57 H           5.9145   -0.6851    0.0000 H       1  UNL1        0.0238
     58 H           5.2993   -0.0604    0.0000 H       1  UNL1        0.0238
     59 H           4.6745   -0.6756    0.0000 H       1  UNL1        0.0238
     60 H          10.1848    0.6684    0.0000 H       1  UNL1        0.0271
     61 H          10.7780    1.2007    0.0000 H       1  UNL1        0.0271
     62 H           3.3085   -3.8316    0.0000 H       1  UNL1        0.0236
     63 H           3.5387   -4.6777    0.0000 H       1  UNL1        0.0236
     64 H           4.3848   -4.4475    0.0000 H       1  UNL1        0.0236
     65 H           4.3109   -4.4478    0.0000 H       1  UNL1        0.0236
     66 H           5.1587   -4.6715    0.0000 H       1  UNL1        0.0236
     67 H           5.3824   -3.8236    0.0000 H       1  UNL1        0.0236
     68 H           9.7924   -2.5566    0.0000 H       1  UNL1        0.2098
     69 H           8.9793    2.2402    0.0000 H       1  UNL1        0.0233
     70 H           8.1038    2.2876    0.0000 H       1  UNL1        0.0233
     71 H           8.0564    1.4120    0.0000 H       1  UNL1        0.0233
     72 H          10.4543    2.8582    0.0000 H       1  UNL1        0.0310
     73 H           9.8611    2.3259    0.0000 H       1  UNL1        0.0310
     74 H           2.0000   -2.9137    0.0000 H       1  UNL1        0.2098
     75 H          12.1781    2.9338    0.0000 H       1  UNL1        0.0340
     76 H          11.9286    1.1111    0.0000 H       1  UNL1        0.0534
     77 H          12.7279    1.8283    0.0000 H       1  UNL1        0.0534
     78 H          12.8704    2.9948    0.0000 H       1  UNL1        0.0235
     79 H          13.3492    3.7294    0.0000 H       1  UNL1        0.0235
     80 H          12.6147    4.2082    0.0000 H       1  UNL1        0.0235
     81 H          11.5577    4.5536    0.0000 H       1  UNL1        0.0235
     82 H          10.6821    4.6010    0.0000 H       1  UNL1        0.0235
     83 H          10.6347    3.7255    0.0000 H       1  UNL1        0.0235
@<TRIPOS>BOND
     1     6     1    1
     2     1    68    1
     3    21     2    1
     4     2    74    1
     5     3     4    1
     6     3     5    1
     7     3    11    1
     8     3    15    1
     9     4     6    1
    10     4     8    1
    11     4    16    1
    12     5     9    1
    13     5    14    1
    14     5    34    1
    15     6     9    1
    16     6    35    1
    17     7    10    1
    18     7    12    1
    19     7    17    1
    20     7    23    1
    21     8    12    1
    22     8    20    2
    23     9    36    1
    24     9    37    1
    25    10    13    1
    26    10    19    1
    27    10    38    1
    28    11    18    1
    29    11    39    1
    30    11    40    1
    31    12    18    2
    32    13    21    1
    33    13    25    1
    34    13    26    1
    35    14    24    1
    36    14    27    1
    37    14    41    1
    38    15    42    1
    39    15    43    1
    40    15    44    1
    41    16    45    1
    42    16    46    1
    43    16    47    1
    44    17    22    1
    45    17    48    1
    46    17    49    1
    47    18    50    1
    48    19    20    1
    49    19    51    1
    50    19    52    1
    51    20    53    1
    52    21    22    1
    53    21    54    1
    54    22    55    1
    55    22    56    1
    56    23    57    1
    57    23    58    1
    58    23    59    1
    59    24    28    1
    60    24    60    1
    61    24    61    1
    62    25    62    1
    63    25    63    1
    64    25    64    1
    65    26    65    1
    66    26    66    1
    67    26    67    1
    68    27    69    1
    69    27    70    1
    70    27    71    1
    71    28    29    1
    72    28    72    1
    73    28    73    1
    74    29    30    1
    75    29    31    2
    76    30    32    1
    77    30    33    1
    78    30    75    1
    79    31    76    1
    80    31    77    1
    81    32    78    1
    82    32    79    1
    83    32    80    1
    84    33    81    1
    85    33    82    1
    86    33    83    1
