@<TRIPOS>MOLECULE
IMPHY014076
 59 64 0 0 0
SMALL
GASTEIGER

@<TRIPOS>ATOM
      1 O           6.6081   -3.5000    0.0000 O.2     1  UNL1       -0.2864
      2 O           6.6081    3.5000    0.0000 O.2     1  UNL1       -0.2864
      3 O           4.8597   -3.5346    0.0000 O.3     1  UNL1       -0.5060
      4 O           4.8597    3.5346    0.0000 O.3     1  UNL1       -0.5060
      5 O           8.3565   -3.5346    0.0000 O.3     1  UNL1       -0.5059
      6 O           8.3565    3.5346    0.0000 O.3     1  UNL1       -0.5060
      7 O          10.1382   -0.4758    0.0000 O.3     1  UNL1       -0.5066
      8 O           2.6110    2.0875    0.0000 O.3     1  UNL1       -0.4771
      9 O           2.3168    0.3805    0.0000 O.2     1  UNL1       -0.2451
     10 C           6.6081   -0.5000    0.0000 C.3     1  UNL1        0.0218
     11 C           6.6081    0.5000    0.0000 C.3     1  UNL1        0.0217
     12 C           5.7421   -1.0000    0.0000 C.ar    1  UNL1       -0.0245
     13 C           7.4741   -1.0000    0.0000 C.ar    1  UNL1       -0.0213
     14 C           5.7421    1.0000    0.0000 C.ar    1  UNL1       -0.0240
     15 C           7.4741    1.0000    0.0000 C.ar    1  UNL1       -0.0247
     16 C           5.7421   -2.0000    0.0000 C.ar    1  UNL1        0.0675
     17 C           7.4741   -2.0000    0.0000 C.ar    1  UNL1        0.0677
     18 C           5.7421    2.0000    0.0000 C.ar    1  UNL1        0.0675
     19 C           7.4741    2.0000    0.0000 C.ar    1  UNL1        0.0675
     20 C           6.6081   -2.5000    0.0000 C.2     1  UNL1        0.2007
     21 C           6.6081    2.5000    0.0000 C.2     1  UNL1        0.2007
     22 C           4.8481   -0.4653    0.0000 C.ar    1  UNL1       -0.0541
     23 C           4.8481    0.4653    0.0000 C.ar    1  UNL1       -0.0431
     24 C           8.3681   -0.4653    0.0000 C.ar    1  UNL1       -0.0155
     25 C           8.3681    0.4653    0.0000 C.ar    1  UNL1       -0.0571
     26 C           4.8481   -2.5347    0.0000 C.ar    1  UNL1        0.1282
     27 C           4.8481    2.5347    0.0000 C.ar    1  UNL1        0.1287
     28 C           8.3681   -2.5347    0.0000 C.ar    1  UNL1        0.1314
     29 C           8.3681    2.5347    0.0000 C.ar    1  UNL1        0.1279
     30 C           3.9421   -0.9792    0.0000 C.ar    1  UNL1       -0.0467
     31 C           3.9421    0.9792    0.0000 C.ar    1  UNL1        0.0626
     32 C           9.2741   -0.9792    0.0000 C.ar    1  UNL1        0.1206
     33 C           3.9421   -2.0208    0.0000 C.ar    1  UNL1       -0.0165
     34 C           9.2741    0.9792    0.0000 C.ar    1  UNL1       -0.0580
     35 C           3.9421    2.0208    0.0000 C.ar    1  UNL1       -0.0055
     36 C           9.2741   -2.0208    0.0000 C.ar    1  UNL1        0.0220
     37 C           9.2741    2.0208    0.0000 C.ar    1  UNL1       -0.0194
     38 C           2.9566   -1.1490    0.0000 C.3     1  UNL1       -0.0396
     39 C           2.9566    1.1491    0.0000 C.2     1  UNL1        0.3369
     40 H           7.1450   -0.1900    0.0000 H       1  UNL1        0.0407
     41 H           6.0712    0.1900    0.0000 H       1  UNL1        0.0407
     42 H           4.8553    0.1546    0.0000 H       1  UNL1        0.0623
     43 H           4.8553   -0.1546    0.0000 H       1  UNL1        0.0629
     44 H           8.3609    0.1546    0.0000 H       1  UNL1        0.0657
     45 H           8.3609   -0.1546    0.0000 H       1  UNL1        0.0621
     46 H           3.4063   -2.3329    0.0000 H       1  UNL1        0.0657
     47 H           9.8099    0.6671    0.0000 H       1  UNL1        0.0619
     48 H           3.4063    2.3329    0.0000 H       1  UNL1        0.0662
     49 H           9.8099   -2.3329    0.0000 H       1  UNL1        0.0691
     50 H           9.8099    2.3329    0.0000 H       1  UNL1        0.0654
     51 H           2.8513   -0.5380    0.0000 H       1  UNL1        0.0278
     52 H           2.3456   -1.2543    0.0000 H       1  UNL1        0.0278
     53 H           3.0619   -1.7600    0.0000 H       1  UNL1        0.0278
     54 H           4.3264   -3.8508    0.0000 H       1  UNL1        0.2922
     55 H           4.3264    3.8508    0.0000 H       1  UNL1        0.2922
     56 H           8.8898   -3.8508    0.0000 H       1  UNL1        0.2922
     57 H           8.8898    3.8508    0.0000 H       1  UNL1        0.2922
     58 H          10.6763   -0.7838    0.0000 H       1  UNL1        0.2921
     59 H           2.0000    2.1928    0.0000 H       1  UNL1        0.2954
@<TRIPOS>BOND
     1     1    20    2
     2     2    21    2
     3     3    26    1
     4     3    54    1
     5     4    27    1
     6     4    55    1
     7     5    28    1
     8     5    56    1
     9     6    29    1
    10     6    57    1
    11     7    32    1
    12     7    58    1
    13     8    39    1
    14     8    59    1
    15     9    39    2
    16    10    11    1
    17    10    12    1
    18    10    13    1
    19    10    40    1
    20    11    14    1
    21    11    15    1
    22    11    41    1
    23    12    16   ar
    24    12    22   ar
    25    13    17   ar
    26    13    24   ar
    27    14    18   ar
    28    14    23   ar
    29    15    19   ar
    30    15    25   ar
    31    16    20    1
    32    16    26   ar
    33    17    20    1
    34    17    28   ar
    35    18    21    1
    36    18    27   ar
    37    19    21    1
    38    19    29   ar
    39    22    30   ar
    40    22    42    1
    41    23    31   ar
    42    23    43    1
    43    24    32   ar
    44    24    44    1
    45    25    34   ar
    46    25    45    1
    47    26    33   ar
    48    27    35   ar
    49    28    36   ar
    50    29    37   ar
    51    30    33   ar
    52    30    38    1
    53    31    35   ar
    54    31    39    1
    55    32    36   ar
    56    33    46    1
    57    34    37   ar
    58    34    47    1
    59    35    48    1
    60    36    49    1
    61    37    50    1
    62    38    51    1
    63    38    52    1
    64    38    53    1
