@<TRIPOS>MOLECULE
IMPHY006303
 46 51 0 0 0
SMALL
GASTEIGER

@<TRIPOS>ATOM
      1 O           6.2268   -0.6037    0.0000 O.3     1  UNL1       -0.3372
      2 O           7.0043   -2.1940    0.0000 O.3     1  UNL1       -0.3503
      3 O           9.0607   -2.4316    0.0000 O.3     1  UNL1       -0.4521
      4 O          10.6340   -1.6740    0.0000 O.3     1  UNL1       -0.4526
      5 O           2.7792   -0.0820    0.0000 O.3     1  UNL1       -0.4526
      6 O           2.4061    1.5524    0.0000 O.3     1  UNL1       -0.4526
      7 N           7.4442    1.8425    0.0000 N.3     1  UNL1       -0.3067
      8 C           7.2216    0.8676    0.0000 C.3     1  UNL1        0.0643
      9 C           6.3207    0.4337    0.0000 C.3     1  UNL1        0.1067
     10 C           8.0912    0.2942    0.0000 C.ar    1  UNL1       -0.0160
     11 C           5.4197    0.8676    0.0000 C.ar    1  UNL1       -0.0101
     12 C           8.0214   -0.7451    0.0000 C.ar    1  UNL1        0.0580
     13 C           7.0829   -1.1971    0.0000 C.3     1  UNL1        0.1895
     14 C           5.1972    1.8425    0.0000 C.ar    1  UNL1       -0.0368
     15 C           6.8207    2.6244    0.0000 C.3     1  UNL1        0.0005
     16 C           5.8207    2.6244    0.0000 C.3     1  UNL1       -0.0146
     17 C           8.9131   -1.3632    0.0000 C.ar    1  UNL1        0.1745
     18 C           9.0576    0.7874    0.0000 C.ar    1  UNL1       -0.0529
     19 C           4.6672    0.1474    0.0000 C.ar    1  UNL1       -0.0102
     20 C           4.2067    2.1649    0.0000 C.ar    1  UNL1       -0.0126
     21 C           9.8907   -0.8924    0.0000 C.ar    1  UNL1        0.1667
     22 C           3.6695    0.4468    0.0000 C.ar    1  UNL1        0.1666
     23 C           9.9634    0.1901    0.0000 C.ar    1  UNL1       -0.0158
     24 C           3.4377    1.4623    0.0000 C.ar    1  UNL1        0.1665
     25 C          10.1221   -2.6233    0.0000 C.3     1  UNL1        0.2332
     26 C           2.0000    0.5999    0.0000 C.3     1  UNL1        0.2332
     27 C           6.1017   -2.6244    0.0000 C.3     1  UNL1        0.0398
     28 H           7.7970    1.0986    0.0000 H       1  UNL1        0.0539
     29 H           5.7814    0.1279    0.0000 H       1  UNL1        0.0667
     30 H           8.0486    1.9805    0.0000 H       1  UNL1        0.1226
     31 H           6.5228   -1.4628    0.0000 H       1  UNL1        0.0966
     32 H           7.3793    2.8934    0.0000 H       1  UNL1        0.0427
     33 H           6.6827    3.2288    0.0000 H       1  UNL1        0.0427
     34 H           5.9586    3.2288    0.0000 H       1  UNL1        0.0326
     35 H           5.2621    2.8934    0.0000 H       1  UNL1        0.0326
     36 H           9.0920    1.4065    0.0000 H       1  UNL1        0.0622
     37 H           4.8121   -0.4554    0.0000 H       1  UNL1        0.0659
     38 H           4.0757    2.7709    0.0000 H       1  UNL1        0.0658
     39 H          10.5189    0.4656    0.0000 H       1  UNL1        0.0655
     40 H           9.9484   -3.2185    0.0000 H       1  UNL1        0.1166
     41 H          10.6957   -2.8586    0.0000 H       1  UNL1        0.1166
     42 H           1.4584    0.9017    0.0000 H       1  UNL1        0.1166
     43 H           1.6430    0.0931    0.0000 H       1  UNL1        0.1166
     44 H           5.8348   -2.0647    0.0000 H       1  UNL1        0.0525
     45 H           5.5421   -2.8912    0.0000 H       1  UNL1        0.0525
     46 H           6.3686   -3.1840    0.0000 H       1  UNL1        0.0525
@<TRIPOS>BOND
     1     1     9    1
     2     1    13    1
     3     2    13    1
     4     2    27    1
     5     3    17    1
     6     3    25    1
     7     4    21    1
     8     4    25    1
     9     5    22    1
    10     5    26    1
    11     6    24    1
    12     6    26    1
    13     7     8    1
    14     7    15    1
    15     7    30    1
    16     8     9    1
    17     8    10    1
    18     8    28    1
    19     9    11    1
    20     9    29    1
    21    10    12   ar
    22    10    18   ar
    23    11    14   ar
    24    11    19   ar
    25    12    13    1
    26    12    17   ar
    27    13    31    1
    28    14    16    1
    29    14    20   ar
    30    15    16    1
    31    15    32    1
    32    15    33    1
    33    16    34    1
    34    16    35    1
    35    17    21   ar
    36    18    23   ar
    37    18    36    1
    38    19    22   ar
    39    19    37    1
    40    20    24   ar
    41    20    38    1
    42    21    23   ar
    43    22    24   ar
    44    23    39    1
    45    25    40    1
    46    25    41    1
    47    26    42    1
    48    26    43    1
    49    27    44    1
    50    27    45    1
    51    27    46    1
