@<TRIPOS>MOLECULE
IMPHY012115
 58 57 0 0 0
SMALL
GASTEIGER

@<TRIPOS>ATOM
      1 O           9.7942   -0.7500    0.0000 O.2     1  UNL1       -0.2974
      2 C          13.2583    0.2500    0.0000 C.3     1  UNL1       -0.0530
      3 C           6.3301    0.2500    0.0000 C.3     1  UNL1       -0.0530
      4 C          12.3923    0.7500    0.0000 C.3     1  UNL1       -0.0527
      5 C           7.1962    0.7500    0.0000 C.3     1  UNL1       -0.0527
      6 C          14.1244    0.7500    0.0000 C.3     1  UNL1       -0.0531
      7 C           5.4641    0.7500    0.0000 C.3     1  UNL1       -0.0531
      8 C          11.5263    0.2500    0.0000 C.3     1  UNL1       -0.0464
      9 C           8.0622    0.2500    0.0000 C.3     1  UNL1       -0.0464
     10 C          10.6603    0.7500    0.0000 C.3     1  UNL1        0.0058
     11 C           8.9282    0.7500    0.0000 C.3     1  UNL1        0.0058
     12 C          14.9904    0.2500    0.0000 C.3     1  UNL1       -0.0531
     13 C           4.5981    0.2500    0.0000 C.3     1  UNL1       -0.0531
     14 C           9.7942    0.2500    0.0000 C.2     1  UNL1        0.1334
     15 C          15.8564    0.7500    0.0000 C.3     1  UNL1       -0.0533
     16 C           3.7320    0.7500    0.0000 C.3     1  UNL1       -0.0533
     17 C          16.7224    0.2500    0.0000 C.3     1  UNL1       -0.0559
     18 C           2.8660    0.2500    0.0000 C.3     1  UNL1       -0.0559
     19 C          17.5885    0.7500    0.0000 C.3     1  UNL1       -0.0653
     20 C           2.0000    0.7500    0.0000 C.3     1  UNL1       -0.0653
     21 H          12.8598   -0.2249    0.0000 H       1  UNL1        0.0265
     22 H          13.6569   -0.2249    0.0000 H       1  UNL1        0.0265
     23 H           5.9316   -0.2249    0.0000 H       1  UNL1        0.0265
     24 H           6.7287   -0.2249    0.0000 H       1  UNL1        0.0265
     25 H          12.7908    1.2250    0.0000 H       1  UNL1        0.0265
     26 H          11.9938    1.2250    0.0000 H       1  UNL1        0.0265
     27 H           7.5947    1.2250    0.0000 H       1  UNL1        0.0265
     28 H           6.7976    1.2250    0.0000 H       1  UNL1        0.0265
     29 H          14.5229    1.2250    0.0000 H       1  UNL1        0.0265
     30 H          13.7258    1.2250    0.0000 H       1  UNL1        0.0265
     31 H           5.8626    1.2250    0.0000 H       1  UNL1        0.0265
     32 H           5.0656    1.2250    0.0000 H       1  UNL1        0.0265
     33 H          11.1278   -0.2249    0.0000 H       1  UNL1        0.0269
     34 H          11.9248   -0.2249    0.0000 H       1  UNL1        0.0269
     35 H           7.6636   -0.2249    0.0000 H       1  UNL1        0.0269
     36 H           8.4607   -0.2249    0.0000 H       1  UNL1        0.0269
     37 H          11.0588    1.2250    0.0000 H       1  UNL1        0.0342
     38 H          10.2617    1.2250    0.0000 H       1  UNL1        0.0342
     39 H           9.3267    1.2250    0.0000 H       1  UNL1        0.0342
     40 H           8.5297    1.2250    0.0000 H       1  UNL1        0.0342
     41 H          14.5919   -0.2249    0.0000 H       1  UNL1        0.0265
     42 H          15.3889   -0.2249    0.0000 H       1  UNL1        0.0265
     43 H           4.1996   -0.2249    0.0000 H       1  UNL1        0.0265
     44 H           4.9966   -0.2249    0.0000 H       1  UNL1        0.0265
     45 H          16.2549    1.2250    0.0000 H       1  UNL1        0.0265
     46 H          15.4579    1.2250    0.0000 H       1  UNL1        0.0265
     47 H           4.1306    1.2250    0.0000 H       1  UNL1        0.0265
     48 H           3.3335    1.2250    0.0000 H       1  UNL1        0.0265
     49 H          16.3239   -0.2249    0.0000 H       1  UNL1        0.0263
     50 H          17.1210   -0.2249    0.0000 H       1  UNL1        0.0263
     51 H           2.4675   -0.2249    0.0000 H       1  UNL1        0.0263
     52 H           3.2646   -0.2249    0.0000 H       1  UNL1        0.0263
     53 H          17.8985    0.2131    0.0000 H       1  UNL1        0.0230
     54 H          18.1254    1.0600    0.0000 H       1  UNL1        0.0230
     55 H          17.2785    1.2869    0.0000 H       1  UNL1        0.0230
     56 H           2.3100    1.2869    0.0000 H       1  UNL1        0.0230
     57 H           1.4631    1.0600    0.0000 H       1  UNL1        0.0230
     58 H           1.6900    0.2131    0.0000 H       1  UNL1        0.0230
@<TRIPOS>BOND
     1     1    14    2
     2     2     4    1
     3     2     6    1
     4     2    21    1
     5     2    22    1
     6     3     5    1
     7     3     7    1
     8     3    23    1
     9     3    24    1
    10     4     8    1
    11     4    25    1
    12     4    26    1
    13     5     9    1
    14     5    27    1
    15     5    28    1
    16     6    12    1
    17     6    29    1
    18     6    30    1
    19     7    13    1
    20     7    31    1
    21     7    32    1
    22     8    10    1
    23     8    33    1
    24     8    34    1
    25     9    11    1
    26     9    35    1
    27     9    36    1
    28    10    14    1
    29    10    37    1
    30    10    38    1
    31    11    14    1
    32    11    39    1
    33    11    40    1
    34    12    15    1
    35    12    41    1
    36    12    42    1
    37    13    16    1
    38    13    43    1
    39    13    44    1
    40    15    17    1
    41    15    45    1
    42    15    46    1
    43    16    18    1
    44    16    47    1
    45    16    48    1
    46    17    19    1
    47    17    49    1
    48    17    50    1
    49    18    20    1
    50    18    51    1
    51    18    52    1
    52    19    53    1
    53    19    54    1
    54    19    55    1
    55    20    56    1
    56    20    57    1
    57    20    58    1
