@<TRIPOS>MOLECULE
IMPHY011050
 13 12 0 0 0
SMALL
GASTEIGER

@<TRIPOS>ATOM
      1 O           2.5369    0.7500    0.0000 O.3     1  UNL1       -0.3881
      2 C           3.4030    0.2500    0.0000 C.3     1  UNL1        0.0703
      3 C           3.4030   -0.7500    0.0000 C.3     1  UNL1       -0.0353
      4 C           4.2690    0.7500    0.0000 C.2     1  UNL1       -0.0633
      5 C           5.1350    0.2500    0.0000 C.2     1  UNL1       -0.1002
      6 H           3.4030    1.1000    0.0000 H       1  UNL1        0.0635
      7 H           2.7830   -0.7500    0.0000 H       1  UNL1        0.0258
      8 H           3.4030   -1.3700    0.0000 H       1  UNL1        0.0258
      9 H           4.0230   -0.7500    0.0000 H       1  UNL1        0.0258
     10 H           4.2690    1.3700    0.0000 H       1  UNL1        0.0592
     11 H           2.0000    0.4400    0.0000 H       1  UNL1        0.2102
     12 H           5.1350   -0.3700    0.0000 H       1  UNL1        0.0533
     13 H           5.6720    0.5600    0.0000 H       1  UNL1        0.0533
@<TRIPOS>BOND
     1     1     2    1
     2     1    11    1
     3     2     3    1
     4     2     4    1
     5     2     6    1
     6     3     7    1
     7     3     8    1
     8     3     9    1
     9     4     5    2
    10     4    10    1
    11     5    12    1
    12     5    13    1
