@<TRIPOS>MOLECULE
IMPHY015308
 30 29 0 0 0
SMALL
GASTEIGER

@<TRIPOS>ATOM
      1 O           7.1962    1.1830    0.0000 O.2     1  UNL1       -0.2971
      2 O           2.8660    0.6830    0.0000 O.2     1  UNL1       -0.2977
      3 C           6.3301   -0.3170    0.0000 C.3     1  UNL1        0.0231
      4 C           5.4641   -0.8170    0.0000 C.3     1  UNL1       -0.0408
      5 C           4.5981   -0.3170    0.0000 C.3     1  UNL1       -0.0455
      6 C           5.8301    0.5490    0.0000 C.3     1  UNL1       -0.0531
      7 C           6.8301   -1.1830    0.0000 C.3     1  UNL1       -0.0531
      8 C           7.1962    0.1830    0.0000 C.2     1  UNL1        0.1359
      9 C           3.7320   -0.8170    0.0000 C.3     1  UNL1        0.0056
     10 C           8.0622   -0.3170    0.0000 C.3     1  UNL1       -0.0055
     11 C           2.8660   -0.3170    0.0000 C.2     1  UNL1        0.1303
     12 C           2.0000   -0.8170    0.0000 C.3     1  UNL1       -0.0061
     13 H           5.0656   -1.2919    0.0000 H       1  UNL1        0.0275
     14 H           5.8626   -1.2919    0.0000 H       1  UNL1        0.0275
     15 H           4.9966    0.1580    0.0000 H       1  UNL1        0.0270
     16 H           4.1996    0.1580    0.0000 H       1  UNL1        0.0270
     17 H           6.3671    0.8590    0.0000 H       1  UNL1        0.0239
     18 H           5.5201    1.0860    0.0000 H       1  UNL1        0.0239
     19 H           5.2932    0.2390    0.0000 H       1  UNL1        0.0239
     20 H           6.2932   -1.4930    0.0000 H       1  UNL1        0.0239
     21 H           7.1401   -1.7200    0.0000 H       1  UNL1        0.0239
     22 H           7.3671   -0.8730    0.0000 H       1  UNL1        0.0239
     23 H           3.3335   -1.2919    0.0000 H       1  UNL1        0.0341
     24 H           4.1306   -1.2919    0.0000 H       1  UNL1        0.0341
     25 H           7.7522   -0.8539    0.0000 H       1  UNL1        0.0306
     26 H           8.5991   -0.6270    0.0000 H       1  UNL1        0.0306
     27 H           8.3722    0.2199    0.0000 H       1  UNL1        0.0306
     28 H           1.6900   -0.2801    0.0000 H       1  UNL1        0.0306
     29 H           1.4631   -1.1270    0.0000 H       1  UNL1        0.0306
     30 H           2.3100   -1.3539    0.0000 H       1  UNL1        0.0306
@<TRIPOS>BOND
     1     1     8    2
     2     2    11    2
     3     3     4    1
     4     3     6    1
     5     3     7    1
     6     3     8    1
     7     4     5    1
     8     4    13    1
     9     4    14    1
    10     5     9    1
    11     5    15    1
    12     5    16    1
    13     6    17    1
    14     6    18    1
    15     6    19    1
    16     7    20    1
    17     7    21    1
    18     7    22    1
    19     8    10    1
    20     9    11    1
    21     9    23    1
    22     9    24    1
    23    10    25    1
    24    10    26    1
    25    10    27    1
    26    11    12    1
    27    12    28    1
    28    12    29    1
    29    12    30    1
