@<TRIPOS>MOLECULE
IMPHY016175
 14 14 0 0 0
SMALL
GASTEIGER

@<TRIPOS>ATOM
      1 C           2.8660    1.0000    0.0000 C.3     1  UNL1       -0.0310
      2 C           2.0000    0.5000    0.0000 C.3     1  UNL1       -0.0310
      3 C           3.7320    0.5000    0.0000 C.2     1  UNL1       -0.0837
      4 C           2.0000   -0.5000    0.0000 C.2     1  UNL1       -0.0837
      5 C           3.7320   -0.5000    0.0000 C.2     1  UNL1       -0.0660
      6 C           2.8660   -1.0000    0.0000 C.2     1  UNL1       -0.0660
      7 H           3.2646    1.4750    0.0000 H       1  UNL1        0.0310
      8 H           2.4675    1.4750    0.0000 H       1  UNL1        0.0310
      9 H           1.7880    1.0826    0.0000 H       1  UNL1        0.0310
     10 H           1.3894    0.3923    0.0000 H       1  UNL1        0.0310
     11 H           4.2690    0.8100    0.0000 H       1  UNL1        0.0572
     12 H           1.4631   -0.8100    0.0000 H       1  UNL1        0.0572
     13 H           4.2690   -0.8100    0.0000 H       1  UNL1        0.0614
     14 H           2.8660   -1.6200    0.0000 H       1  UNL1        0.0614
@<TRIPOS>BOND
     1     1     2    1
     2     1     3    1
     3     1     7    1
     4     1     8    1
     5     2     4    1
     6     2     9    1
     7     2    10    1
     8     3     5    2
     9     3    11    1
    10     4     6    2
    11     4    12    1
    12     5     6    1
    13     5    13    1
    14     6    14    1
