@<TRIPOS>MOLECULE
IMPHY000061
 42 44 0 0 0
SMALL
GASTEIGER

@<TRIPOS>ATOM
      1 O           4.1657   -1.4523    0.0000 O.3     1  UNL1       -0.3875
      2 C           3.5626    1.0510    0.0000 C.3     1  UNL1        0.0003
      3 C           4.1019   -0.4544    0.0000 C.3     1  UNL1        0.0770
      4 C           4.1243    0.6240    0.0000 C.3     1  UNL1       -0.0302
      5 C           3.1067   -1.0228    0.0000 C.3     1  UNL1       -0.0027
      6 C           2.5067   -0.4319    0.0000 C.3     1  UNL1       -0.0330
      7 C           3.0459    0.2646    0.0000 C.3     1  UNL1       -0.0460
      8 C           2.8437    1.2532    0.0000 C.3     1  UNL1       -0.0445
      9 C           2.0574    0.5342    0.0000 C.3     1  UNL1       -0.0490
     10 C           5.0455    0.4668    0.0000 C.3     1  UNL1       -0.0404
     11 C           5.1731   -0.8962    0.0000 C.3     1  UNL1       -0.0227
     12 C           5.6297   -0.2072    0.0000 C.3     1  UNL1       -0.0476
     13 C           4.0084    1.9461    0.0000 C.3     1  UNL1       -0.0567
     14 C           2.4992   -1.8171    0.0000 C.3     1  UNL1       -0.0569
     15 C           3.4908   -1.9461    0.0000 C.3     1  UNL1       -0.0569
     16 C           5.5362    1.3382    0.0000 C.3     1  UNL1       -0.0621
     17 H           4.4628    1.4038    0.0000 H       1  UNL1        0.0310
     18 H           1.8120   -0.9218    0.0000 H       1  UNL1        0.0307
     19 H           3.0490    0.8846    0.0000 H       1  UNL1        0.0271
     20 H           3.4045   -0.2412    0.0000 H       1  UNL1        0.0271
     21 H           3.1186    1.8088    0.0000 H       1  UNL1        0.0272
     22 H           2.3482    1.6258    0.0000 H       1  UNL1        0.0272
     23 H           1.6876    1.0319    0.0000 H       1  UNL1        0.0268
     24 H           1.5247    0.2169    0.0000 H       1  UNL1        0.0268
     25 H           5.6624    0.5291    0.0000 H       1  UNL1        0.0301
     26 H           4.9002   -1.4529    0.0000 H       1  UNL1        0.0293
     27 H           5.7110   -1.2046    0.0000 H       1  UNL1        0.0293
     28 H           6.1134   -0.5950    0.0000 H       1  UNL1        0.0269
     29 H           6.0596    0.2395    0.0000 H       1  UNL1        0.0269
     30 H           4.5634    1.6698    0.0000 H       1  UNL1        0.0236
     31 H           4.2847    2.5011    0.0000 H       1  UNL1        0.0236
     32 H           3.4534    2.2225    0.0000 H       1  UNL1        0.0236
     33 H           2.0067   -1.4405    0.0000 H       1  UNL1        0.0236
     34 H           2.1225   -2.3096    0.0000 H       1  UNL1        0.0236
     35 H           2.9916   -2.1938    0.0000 H       1  UNL1        0.0236
     36 H           2.9184   -2.1843    0.0000 H       1  UNL1        0.0236
     37 H           3.7290   -2.5186    0.0000 H       1  UNL1        0.0236
     38 H           4.0633   -1.7080    0.0000 H       1  UNL1        0.0236
     39 H           4.7214   -1.7274    0.0000 H       1  UNL1        0.2102
     40 H           6.0764    1.0339    0.0000 H       1  UNL1        0.0233
     41 H           5.8404    1.8784    0.0000 H       1  UNL1        0.0233
     42 H           4.9960    1.6424    0.0000 H       1  UNL1        0.0233
@<TRIPOS>BOND
     1     3     1    1
     2     1    39    1
     3     2     3    1
     4     2     4    1
     5     2     8    1
     6     2    13    1
     7     3     5    1
     8     3    11    1
     9     4     7    1
    10     4    10    1
    11     4    17    1
    12     5     6    1
    13     5    14    1
    14     5    15    1
    15     6     7    1
    16     6     9    1
    17     6    18    1
    18     7    19    1
    19     7    20    1
    20     8     9    1
    21     8    21    1
    22     8    22    1
    23     9    23    1
    24     9    24    1
    25    10    12    1
    26    10    16    1
    27    10    25    1
    28    11    12    1
    29    11    26    1
    30    11    27    1
    31    12    28    1
    32    12    29    1
    33    13    30    1
    34    13    31    1
    35    13    32    1
    36    14    33    1
    37    14    34    1
    38    14    35    1
    39    15    36    1
    40    15    37    1
    41    15    38    1
    42    16    40    1
    43    16    41    1
    44    16    42    1
