@<TRIPOS>MOLECULE
IMPHY007349
 54 57 0 0 0
SMALL
GASTEIGER

@<TRIPOS>ATOM
      1 O           6.3782   -2.7666    0.0000 O.3     1  UNL1       -0.4641
      2 O           7.0826    0.4898    0.0000 O.3     1  UNL1       -0.3863
      3 O           4.8837   -1.7960    0.0000 O.2     1  UNL1       -0.2504
      4 O          11.8712   -1.2594    0.0000 O.3     1  UNL1       -0.4526
      5 O          11.8712   -2.8689    0.0000 O.3     1  UNL1       -0.4526
      6 O           2.9511   -0.8995    0.0000 O.3     1  UNL1       -0.4913
      7 O           4.0215    2.3950    0.0000 O.3     1  UNL1       -0.4913
      8 O           2.5352    1.0568    0.0000 O.3     1  UNL1       -0.4885
      9 C           7.4609   -1.5642    0.0000 C.3     1  UNL1        0.0129
     10 C           6.5474   -1.1574    0.0000 C.3     1  UNL1        0.0925
     11 C           7.3564   -2.5587    0.0000 C.3     1  UNL1        0.0964
     12 C           8.3269   -1.0642    0.0000 C.3     1  UNL1       -0.0208
     13 C           6.3395   -0.1793    0.0000 C.3     1  UNL1        0.0937
     14 C           5.8782   -1.9006    0.0000 C.2     1  UNL1        0.3134
     15 C           9.1930   -1.5642    0.0000 C.ar    1  UNL1       -0.0433
     16 C           5.3884    0.1297    0.0000 C.ar    1  UNL1       -0.0112
     17 C          10.0590   -1.0642    0.0000 C.ar    1  UNL1       -0.0130
     18 C           9.1930   -2.5642    0.0000 C.ar    1  UNL1       -0.0549
     19 C           5.1805    1.1079    0.0000 C.ar    1  UNL1       -0.0104
     20 C           4.6453   -0.5394    0.0000 C.ar    1  UNL1       -0.0104
     21 C          10.9250   -1.5642    0.0000 C.ar    1  UNL1        0.1665
     22 C           3.6942   -0.2304    0.0000 C.ar    1  UNL1        0.1655
     23 C           4.2294    1.4169    0.0000 C.ar    1  UNL1        0.1655
     24 C          10.0590   -3.0642    0.0000 C.ar    1  UNL1       -0.0159
     25 C          10.9250   -2.5642    0.0000 C.ar    1  UNL1        0.1662
     26 C           3.4863    0.7478    0.0000 C.ar    1  UNL1        0.2035
     27 C          12.4548   -2.0642    0.0000 C.3     1  UNL1        0.2332
     28 C           2.0000   -0.5905    0.0000 C.3     1  UNL1        0.0790
     29 C           4.7647    3.0642    0.0000 C.3     1  UNL1        0.0790
     30 C           2.3273    2.0349    0.0000 C.3     1  UNL1        0.0791
     31 H           7.9809   -1.9018    0.0000 H       1  UNL1        0.0346
     32 H           5.7263   -0.9374    0.0000 H       1  UNL1        0.0446
     33 H           7.4212   -3.1753    0.0000 H       1  UNL1        0.0700
     34 H           7.9764   -2.5587    0.0000 H       1  UNL1        0.0700
     35 H           6.9291   -0.3709    0.0000 H       1  UNL1        0.0652
     36 H           8.7255   -0.5892    0.0000 H       1  UNL1        0.0317
     37 H           7.9284   -0.5892    0.0000 H       1  UNL1        0.0317
     38 H           6.9537    1.0963    0.0000 H       1  UNL1        0.2103
     39 H          10.0590   -0.4442    0.0000 H       1  UNL1        0.0658
     40 H           8.6560   -2.8742    0.0000 H       1  UNL1        0.0621
     41 H           5.6412    1.5227    0.0000 H       1  UNL1        0.0659
     42 H           4.7742   -1.1458    0.0000 H       1  UNL1        0.0659
     43 H          10.0590   -3.6842    0.0000 H       1  UNL1        0.0655
     44 H          12.9157   -2.4789    0.0000 H       1  UNL1        0.1166
     45 H          12.9157   -1.6494    0.0000 H       1  UNL1        0.1166
     46 H           2.1916   -0.0008    0.0000 H       1  UNL1        0.0660
     47 H           1.4103   -0.3989    0.0000 H       1  UNL1        0.0660
     48 H           1.8084   -1.1802    0.0000 H       1  UNL1        0.0660
     49 H           5.1795    2.6034    0.0000 H       1  UNL1        0.0660
     50 H           5.2254    3.4790    0.0000 H       1  UNL1        0.0660
     51 H           4.3498    3.5249    0.0000 H       1  UNL1        0.0660
     52 H           2.9338    2.1638    0.0000 H       1  UNL1        0.0660
     53 H           2.1984    2.6414    0.0000 H       1  UNL1        0.0660
     54 H           1.7209    1.9060    0.0000 H       1  UNL1        0.0660
@<TRIPOS>BOND
     1     1    11    1
     2     1    14    1
     3    13     2    1
     4     2    38    1
     5     3    14    2
     6     4    21    1
     7     4    27    1
     8     5    25    1
     9     5    27    1
    10     6    22    1
    11     6    28    1
    12     7    23    1
    13     7    29    1
    14     8    26    1
    15     8    30    1
    16     9    10    1
    17     9    11    1
    18     9    12    1
    19     9    31    1
    20    10    13    1
    21    10    14    1
    22    10    32    1
    23    11    33    1
    24    11    34    1
    25    12    15    1
    26    12    36    1
    27    12    37    1
    28    13    16    1
    29    13    35    1
    30    15    17   ar
    31    15    18   ar
    32    16    19   ar
    33    16    20   ar
    34    17    21   ar
    35    17    39    1
    36    18    24   ar
    37    18    40    1
    38    19    23   ar
    39    19    41    1
    40    20    22   ar
    41    20    42    1
    42    21    25   ar
    43    22    26   ar
    44    23    26   ar
    45    24    25   ar
    46    24    43    1
    47    27    44    1
    48    27    45    1
    49    28    46    1
    50    28    47    1
    51    28    48    1
    52    29    49    1
    53    29    50    1
    54    29    51    1
    55    30    52    1
    56    30    53    1
    57    30    54    1
