@<TRIPOS>MOLECULE
IMPHY013171
 36 38 0 0 0
SMALL
GASTEIGER

@<TRIPOS>ATOM
      1 O           3.7817    1.0841    0.0000 O.3     1  UNL1       -0.4944
      2 O           8.1663   -0.4536    0.0000 O.3     1  UNL1       -0.5031
      3 O           8.1821    1.5946    0.0000 O.3     1  UNL1       -0.4914
      4 O           2.0000   -1.9746    0.0000 O.3     1  UNL1       -0.5066
      5 C           6.3961   -1.4505    0.0000 C.3     1  UNL1       -0.0195
      6 C           5.5301   -1.9505    0.0000 C.3     1  UNL1       -0.0228
      7 C           6.3961   -0.4505    0.0000 C.ar    1  UNL1        0.0058
      8 C           4.6641   -1.4505    0.0000 C.ar    1  UNL1       -0.0324
      9 C           4.6641   -0.4505    0.0000 C.ar    1  UNL1        0.0276
     10 C           5.5301    0.0495    0.0000 C.ar    1  UNL1       -0.0073
     11 C           7.3062    0.0564    0.0000 C.ar    1  UNL1        0.1623
     12 C           3.7702    0.0842    0.0000 C.ar    1  UNL1        0.1315
     13 C           3.7702   -1.9851    0.0000 C.ar    1  UNL1       -0.0162
     14 C           5.5141    1.0910    0.0000 C.ar    1  UNL1       -0.0500
     15 C           7.3142    1.0980    0.0000 C.ar    1  UNL1        0.1616
     16 C           2.8641   -1.4713    0.0000 C.ar    1  UNL1        0.1206
     17 C           2.8641   -0.4297    0.0000 C.ar    1  UNL1        0.0221
     18 C           6.4121    1.6188    0.0000 C.ar    1  UNL1       -0.0157
     19 C           2.9215    1.5941    0.0000 C.3     1  UNL1        0.0788
     20 C           8.1860    2.5946    0.0000 C.3     1  UNL1        0.0790
     21 H           6.6082   -2.0331    0.0000 H       1  UNL1        0.0318
     22 H           7.0067   -1.3428    0.0000 H       1  UNL1        0.0318
     23 H           5.1316   -2.4254    0.0000 H       1  UNL1        0.0317
     24 H           5.9286   -2.4254    0.0000 H       1  UNL1        0.0317
     25 H           3.7773   -2.6051    0.0000 H       1  UNL1        0.0657
     26 H           4.9736    1.3948    0.0000 H       1  UNL1        0.0625
     27 H           2.3284   -0.1176    0.0000 H       1  UNL1        0.0691
     28 H           6.4097    2.2388    0.0000 H       1  UNL1        0.0655
     29 H           8.7068   -0.1498    0.0000 H       1  UNL1        0.2923
     30 H           2.0024   -2.5946    0.0000 H       1  UNL1        0.2921
     31 H           3.2377    2.1274    0.0000 H       1  UNL1        0.0660
     32 H           2.3882    1.9103    0.0000 H       1  UNL1        0.0660
     33 H           2.6054    1.0608    0.0000 H       1  UNL1        0.0660
     34 H           8.8060    2.5922    0.0000 H       1  UNL1        0.0660
     35 H           8.1884    3.2146    0.0000 H       1  UNL1        0.0660
     36 H           7.5660    2.5970    0.0000 H       1  UNL1        0.0660
@<TRIPOS>BOND
     1     1    12    1
     2     1    19    1
     3     2    11    1
     4     2    29    1
     5     3    15    1
     6     3    20    1
     7     4    16    1
     8     4    30    1
     9     5     6    1
    10     5     7    1
    11     5    21    1
    12     5    22    1
    13     6     8    1
    14     6    23    1
    15     6    24    1
    16     7    10   ar
    17     7    11   ar
    18     8     9   ar
    19     8    13   ar
    20     9    10    1
    21     9    12   ar
    22    10    14   ar
    23    11    15   ar
    24    12    17   ar
    25    13    16   ar
    26    13    25    1
    27    14    18   ar
    28    14    26    1
    29    15    18   ar
    30    16    17   ar
    31    17    27    1
    32    18    28    1
    33    19    31    1
    34    19    32    1
    35    19    33    1
    36    20    34    1
    37    20    35    1
    38    20    36    1
