@<TRIPOS>MOLECULE
IMPHY003929
 124 130 0 0 0
SMALL
GASTEIGER

@<TRIPOS>ATOM
      1 O           6.8671   -1.8322    0.0000 O.3     1  UNL1       -0.3448
      2 O           8.6424    7.5222    0.0000 O.3     1  UNL1       -0.3912
      3 O           9.3112   -1.1406    0.0000 O.3     1  UNL1       -0.3944
      4 O           5.1350   -1.8322    0.0000 O.3     1  UNL1       -0.3315
      5 O           6.8671   -3.8322    0.0000 O.3     1  UNL1       -0.3378
      6 O           5.1350   -4.8322    0.0000 O.3     1  UNL1       -0.3864
      7 O           3.4030   -3.8322    0.0000 O.3     1  UNL1       -0.3860
      8 O           6.0010   -5.3322    0.0000 O.3     1  UNL1       -0.3405
      9 O           2.5369   -2.3322    0.0000 O.3     1  UNL1       -0.4788
     10 O           3.4030   -0.8323    0.0000 O.2     1  UNL1       -0.2480
     11 O           8.5991   -4.8322    0.0000 O.3     1  UNL1       -0.3841
     12 O           8.5991   -6.8322    0.0000 O.3     1  UNL1       -0.3864
     13 O           6.8671   -7.8322    0.0000 O.3     1  UNL1       -0.3865
     14 O           5.1350   -7.8322    0.0000 O.3     1  UNL1       -0.3924
     15 C           7.7681    2.8680    0.0000 C.3     1  UNL1       -0.0194
     16 C           6.9040    2.3646    0.0000 C.3     1  UNL1       -0.0257
     17 C           6.8920    1.3231    0.0000 C.3     1  UNL1       -0.0249
     18 C           7.7643    3.8680    0.0000 C.3     1  UNL1       -0.0051
     19 C           7.7920    0.7988    0.0000 C.3     1  UNL1       -0.0255
     20 C           8.6801    2.3646    0.0000 C.3     1  UNL1       -0.0463
     21 C           6.8963    4.3646    0.0000 C.2     1  UNL1       -0.0633
     22 C           7.8046   -0.2861    0.0000 C.3     1  UNL1        0.0206
     23 C           8.6921    1.3231    0.0000 C.3     1  UNL1       -0.0485
     24 C           6.8762    5.4061    0.0000 C.3     1  UNL1       -0.0111
     25 C           7.7722    5.9373    0.0000 C.3     1  UNL1        0.0005
     26 C           6.0361    2.8613    0.0000 C.3     1  UNL1       -0.0306
     27 C           8.6723    4.3783    0.0000 C.3     1  UNL1       -0.0428
     28 C           5.9421    0.7988    0.0000 C.3     1  UNL1       -0.0447
     29 C           8.6763    5.4199    0.0000 C.3     1  UNL1       -0.0439
     30 C           8.7522    3.0454    0.0000 C.3     1  UNL1       -0.0585
     31 C           6.8671   -0.8323    0.0000 C.3     1  UNL1        0.0695
     32 C           6.0322    3.8613    0.0000 C.2     1  UNL1       -0.0836
     33 C           6.0279    1.8264    0.0000 C.3     1  UNL1       -0.0590
     34 C           5.9295   -0.2861    0.0000 C.3     1  UNL1       -0.0254
     35 C           8.7497    3.6981    0.0000 C.3     1  UNL1       -0.0553
     36 C           5.9223    5.9230    0.0000 C.3     1  UNL1       -0.0406
     37 C           7.7764    7.0222    0.0000 C.3     1  UNL1        0.0616
     38 C           5.9014    7.0078    0.0000 C.3     1  UNL1       -0.0320
     39 C           6.8347    7.5611    0.0000 C.3     1  UNL1       -0.0211
     40 C           8.8046   -0.2784    0.0000 C.3     1  UNL1        0.0522
     41 C           8.3113   -1.1483    0.0000 C.3     1  UNL1       -0.0548
     42 C           8.6324    6.4473    0.0000 C.3     1  UNL1       -0.0567
     43 C           5.3881    7.8660    0.0000 C.3     1  UNL1       -0.0597
     44 C           4.9015    6.9924    0.0000 C.3     1  UNL1       -0.0597
     45 C           6.0010   -2.3322    0.0000 C.3     1  UNL1        0.1892
     46 C           6.0010   -3.3322    0.0000 C.3     1  UNL1        0.1407
     47 C           5.1350   -3.8322    0.0000 C.3     1  UNL1        0.1149
     48 C           4.2690   -2.3322    0.0000 C.3     1  UNL1        0.1859
     49 C           4.2690   -3.3322    0.0000 C.3     1  UNL1        0.1202
     50 C           6.8671   -4.8322    0.0000 C.3     1  UNL1        0.1885
     51 C           3.4030   -1.8322    0.0000 C.2     1  UNL1        0.3367
     52 C           7.7331   -5.3322    0.0000 C.3     1  UNL1        0.1341
     53 C           7.7331   -6.3322    0.0000 C.3     1  UNL1        0.1141
     54 C           6.0010   -6.3322    0.0000 C.3     1  UNL1        0.1130
     55 C           6.8671   -6.8322    0.0000 C.3     1  UNL1        0.1119
     56 C           5.1350   -6.8322    0.0000 C.3     1  UNL1        0.0730
     57 H           7.6385    1.9368    0.0000 H       1  UNL1        0.0315
     58 H           8.5314    0.3795    0.0000 H       1  UNL1        0.0313
     59 H           9.2921    2.2656    0.0000 H       1  UNL1        0.0271
     60 H           8.8824    2.9507    0.0000 H       1  UNL1        0.0271
     61 H           8.9079    0.7418    0.0000 H       1  UNL1        0.0268
     62 H           9.3017    1.4362    0.0000 H       1  UNL1        0.0268
     63 H           6.1502    4.9642    0.0000 H       1  UNL1        0.0352
     64 H           5.4251    2.9666    0.0000 H       1  UNL1        0.0310
     65 H           5.8263    2.2779    0.0000 H       1  UNL1        0.0310
     66 H           8.8791    3.7938    0.0000 H       1  UNL1        0.0274
     67 H           9.2836    4.4820    0.0000 H       1  UNL1        0.0274
     68 H           5.7398    1.3848    0.0000 H       1  UNL1        0.0271
     69 H           5.3300    0.6998    0.0000 H       1  UNL1        0.0271
     70 H           9.2868    5.3115    0.0000 H       1  UNL1        0.0272
     71 H           8.8876    6.0028    0.0000 H       1  UNL1        0.0272
     72 H           8.8623    2.4352    0.0000 H       1  UNL1        0.0235
     73 H           9.3624    3.1554    0.0000 H       1  UNL1        0.0235
     74 H           8.6422    3.6556    0.0000 H       1  UNL1        0.0235
     75 H           7.4046   -1.1412    0.0000 H       1  UNL1        0.0603
     76 H           5.4941    4.1692    0.0000 H       1  UNL1        0.0572
     77 H           6.3400    2.3621    0.0000 H       1  UNL1        0.0235
     78 H           5.4922    2.1385    0.0000 H       1  UNL1        0.0235
     79 H           5.7158    1.2907    0.0000 H       1  UNL1        0.0235
     80 H           5.3199   -0.1730    0.0000 H       1  UNL1        0.0290
     81 H           5.7137   -0.8674    0.0000 H       1  UNL1        0.0290
     82 H           8.6444    3.0871    0.0000 H       1  UNL1        0.0238
     83 H           9.3607    3.5928    0.0000 H       1  UNL1        0.0238
     84 H           8.8550    4.3091    0.0000 H       1  UNL1        0.0238
     85 H           5.3095    6.0173    0.0000 H       1  UNL1        0.0276
     86 H           5.7246    5.3354    0.0000 H       1  UNL1        0.0276
     87 H           8.3128    6.7112    0.0000 H       1  UNL1        0.0599
     88 H           7.2302    8.0386    0.0000 H       1  UNL1        0.0295
     89 H           6.4319    8.0325    0.0000 H       1  UNL1        0.0295
     90 H           9.3855   -0.0619    0.0000 H       1  UNL1        0.0563
     91 H           8.6922    0.3313    0.0000 H       1  UNL1        0.0563
     92 H           7.7767   -1.4624    0.0000 H       1  UNL1        0.0237
     93 H           8.6254   -1.6828    0.0000 H       1  UNL1        0.0237
     94 H           8.8458   -0.8342    0.0000 H       1  UNL1        0.0237
     95 H           8.9486    5.9139    0.0000 H       1  UNL1        0.0236
     96 H           9.1657    6.7634    0.0000 H       1  UNL1        0.0236
     97 H           8.3162    6.9806    0.0000 H       1  UNL1        0.0236
     98 H           5.9202    8.1842    0.0000 H       1  UNL1        0.0235
     99 H           4.8920    7.6123    0.0000 H       1  UNL1        0.0235
    100 H           5.0699    8.3981    0.0000 H       1  UNL1        0.0235
    101 H           4.8560    7.5478    0.0000 H       1  UNL1        0.0235
    102 H           4.2816    6.9828    0.0000 H       1  UNL1        0.0235
    103 H           4.9111    6.3725    0.0000 H       1  UNL1        0.0235
    104 H           8.6424    8.1422    0.0000 H       1  UNL1        0.2098
    105 H           6.5380   -2.6423    0.0000 H       1  UNL1        0.0938
    106 H           9.9312   -1.1358    0.0000 H       1  UNL1        0.2094
    107 H           6.0010   -3.9522    0.0000 H       1  UNL1        0.0675
    108 H           4.5981   -4.1422    0.0000 H       1  UNL1        0.0648
    109 H           4.2690   -1.7122    0.0000 H       1  UNL1        0.0741
    110 H           3.7320   -3.0222    0.0000 H       1  UNL1        0.0652
    111 H           7.4040   -4.5222    0.0000 H       1  UNL1        0.0938
    112 H           4.5981   -5.1422    0.0000 H       1  UNL1        0.2100
    113 H           3.4030   -4.4522    0.0000 H       1  UNL1        0.2100
    114 H           8.2700   -5.6422    0.0000 H       1  UNL1        0.0671
    115 H           7.7331   -6.9522    0.0000 H       1  UNL1        0.0648
    116 H           5.4641   -6.0222    0.0000 H       1  UNL1        0.0647
    117 H           2.0000   -2.0222    0.0000 H       1  UNL1        0.2951
    118 H           6.3301   -7.1422    0.0000 H       1  UNL1        0.0647
    119 H           9.1360   -5.1422    0.0000 H       1  UNL1        0.2101
    120 H           4.9230   -6.2496    0.0000 H       1  UNL1        0.0584
    121 H           4.5244   -6.9399    0.0000 H       1  UNL1        0.0584
    122 H           8.5991   -7.4522    0.0000 H       1  UNL1        0.2100
    123 H           7.4040   -8.1422    0.0000 H       1  UNL1        0.2100
    124 H           4.5981   -8.1422    0.0000 H       1  UNL1        0.2095
@<TRIPOS>BOND
     1    31     1    1
     2    45     1    1
     3    37     2    1
     4     2   104    1
     5     3    40    1
     6     3   106    1
     7     4    45    1
     8     4    48    1
     9    46     5    1
    10    50     5    1
    11    47     6    1
    12     6   112    1
    13    49     7    1
    14     7   113    1
    15     8    50    1
    16     8    54    1
    17     9    51    1
    18     9   117    1
    19    10    51    2
    20    52    11    1
    21    11   119    1
    22    53    12    1
    23    12   122    1
    24    55    13    1
    25    13   123    1
    26    14    56    1
    27    14   124    1
    28    15    16    1
    29    15    18    1
    30    15    20    1
    31    15    30    1
    32    16    17    1
    33    16    26    1
    34    16    57    1
    35    17    19    1
    36    17    28    1
    37    17    33    1
    38    18    21    1
    39    18    27    1
    40    18    35    1
    41    19    22    1
    42    19    23    1
    43    19    58    1
    44    20    23    1
    45    20    59    1
    46    20    60    1
    47    21    24    1
    48    21    32    2
    49    22    31    1
    50    22    40    1
    51    22    41    1
    52    23    61    1
    53    23    62    1
    54    24    25    1
    55    24    36    1
    56    24    63    1
    57    25    29    1
    58    25    37    1
    59    25    42    1
    60    26    32    1
    61    26    64    1
    62    26    65    1
    63    27    29    1
    64    27    66    1
    65    27    67    1
    66    28    34    1
    67    28    68    1
    68    28    69    1
    69    29    70    1
    70    29    71    1
    71    30    72    1
    72    30    73    1
    73    30    74    1
    74    31    34    1
    75    31    75    1
    76    32    76    1
    77    33    77    1
    78    33    78    1
    79    33    79    1
    80    34    80    1
    81    34    81    1
    82    35    82    1
    83    35    83    1
    84    35    84    1
    85    36    38    1
    86    36    85    1
    87    36    86    1
    88    37    39    1
    89    37    87    1
    90    38    39    1
    91    38    43    1
    92    38    44    1
    93    39    88    1
    94    39    89    1
    95    40    90    1
    96    40    91    1
    97    41    92    1
    98    41    93    1
    99    41    94    1
   100    42    95    1
   101    42    96    1
   102    42    97    1
   103    43    98    1
   104    43   100    1
   105    43   101    1
   106    44    99    1
   107    44   102    1
   108    44   103    1
   109    45    46    1
   110    45   105    1
   111    46    47    1
   112    46   107    1
   113    47    49    1
   114    47   108    1
   115    48    49    1
   116    48    51    1
   117    48   109    1
   118    49   110    1
   119    50    52    1
   120    50   111    1
   121    52    53    1
   122    52   114    1
   123    53    55    1
   124    53   115    1
   125    54    55    1
   126    54    56    1
   127    54   116    1
   128    55   118    1
   129    56   120    1
   130    56   121    1
