@<TRIPOS>MOLECULE
IMPHY016668
 44 44 0 0 0
SMALL
GASTEIGER

@<TRIPOS>ATOM
      1 C           5.4641    1.0000    0.0000 C.3     1  UNL1       -0.0286
      2 C           3.7320   -1.0000    0.0000 C.3     1  UNL1       -0.0090
      3 C           3.7320   -2.0000    0.0000 C.ar    1  UNL1       -0.0405
      4 C           4.5981    0.5000    0.0000 C.2     1  UNL1       -0.0759
      5 C           5.4641    2.0000    0.0000 C.3     1  UNL1       -0.0308
      6 C           4.5981   -0.5000    0.0000 C.2     1  UNL1       -0.0807
      7 C           2.8660   -2.5000    0.0000 C.ar    1  UNL1       -0.0470
      8 C           4.5981   -2.5000    0.0000 C.ar    1  UNL1       -0.0551
      9 C           4.5981   -3.5000    0.0000 C.ar    1  UNL1       -0.0502
     10 C           3.7320    1.0000    0.0000 C.3     1  UNL1       -0.0438
     11 C           2.8660   -3.5000    0.0000 C.ar    1  UNL1       -0.0583
     12 C           6.3301    2.5000    0.0000 C.2     1  UNL1       -0.0850
     13 C           3.7320   -4.0000    0.0000 C.ar    1  UNL1       -0.0586
     14 C           2.0000   -2.0000    0.0000 C.3     1  UNL1       -0.0394
     15 C           6.3301    3.5000    0.0000 C.2     1  UNL1       -0.0796
     16 C           5.4641   -4.0000    0.0000 C.3     1  UNL1       -0.0397
     17 C           7.1962    4.0000    0.0000 C.3     1  UNL1       -0.0440
     18 C           5.4641    4.0000    0.0000 C.3     1  UNL1       -0.0440
     19 H           5.6762    0.4174    0.0000 H       1  UNL1        0.0313
     20 H           6.0747    1.1077    0.0000 H       1  UNL1        0.0313
     21 H           3.5200   -0.4174    0.0000 H       1  UNL1        0.0356
     22 H           3.1215   -1.1077    0.0000 H       1  UNL1        0.0356
     23 H           5.2520    2.5826    0.0000 H       1  UNL1        0.0310
     24 H           4.8535    1.8923    0.0000 H       1  UNL1        0.0310
     25 H           5.1350   -0.8100    0.0000 H       1  UNL1        0.0575
     26 H           5.1350   -2.1900    0.0000 H       1  UNL1        0.0623
     27 H           4.0420    1.5369    0.0000 H       1  UNL1        0.0274
     28 H           3.1951    1.3100    0.0000 H       1  UNL1        0.0274
     29 H           3.4220    0.4631    0.0000 H       1  UNL1        0.0274
     30 H           6.8671    2.1900    0.0000 H       1  UNL1        0.0572
     31 H           2.3291   -3.8100    0.0000 H       1  UNL1        0.0620
     32 H           3.7320   -4.6200    0.0000 H       1  UNL1        0.0620
     33 H           2.3100   -1.4631    0.0000 H       1  UNL1        0.0278
     34 H           1.4631   -1.6900    0.0000 H       1  UNL1        0.0278
     35 H           1.6900   -2.5369    0.0000 H       1  UNL1        0.0278
     36 H           5.1541   -4.5369    0.0000 H       1  UNL1        0.0278
     37 H           6.0010   -4.3100    0.0000 H       1  UNL1        0.0278
     38 H           5.7741   -3.4631    0.0000 H       1  UNL1        0.0278
     39 H           7.5062    3.4631    0.0000 H       1  UNL1        0.0274
     40 H           7.7331    4.3100    0.0000 H       1  UNL1        0.0274
     41 H           6.8862    4.5369    0.0000 H       1  UNL1        0.0274
     42 H           5.7741    4.5369    0.0000 H       1  UNL1        0.0274
     43 H           4.9272    4.3100    0.0000 H       1  UNL1        0.0274
     44 H           5.1541    3.4631    0.0000 H       1  UNL1        0.0274
@<TRIPOS>BOND
     1     1     4    1
     2     1     5    1
     3     1    19    1
     4     1    20    1
     5     2     3    1
     6     2     6    1
     7     2    21    1
     8     2    22    1
     9     3     7   ar
    10     3     8   ar
    11     4     6    2
    12     4    10    1
    13     5    12    1
    14     5    23    1
    15     5    24    1
    16     6    25    1
    17     7    11   ar
    18     7    14    1
    19     8     9   ar
    20     8    26    1
    21     9    13   ar
    22     9    16    1
    23    10    27    1
    24    10    28    1
    25    10    29    1
    26    11    13   ar
    27    11    31    1
    28    12    15    2
    29    12    30    1
    30    13    32    1
    31    14    33    1
    32    14    34    1
    33    14    35    1
    34    15    17    1
    35    15    18    1
    36    16    36    1
    37    16    37    1
    38    16    38    1
    39    17    39    1
    40    17    40    1
    41    17    41    1
    42    18    42    1
    43    18    43    1
    44    18    44    1
