@<TRIPOS>MOLECULE
IMPHY007538
 54 56 0 0 0
SMALL
GASTEIGER

@<TRIPOS>ATOM
      1 O           9.4893    0.3223    0.0000 O.3     1  UNL1       -0.4578
      2 O           7.7331    3.2134    0.0000 O.3     1  UNL1       -0.3812
      3 O           6.0010    1.2134    0.0000 O.2     1  UNL1       -0.4707
      4 O           6.8671   -0.2866    0.0000 O.3     1  UNL1       -0.3093
      5 O           8.9900    3.4687    0.0000 O.3     1  UNL1       -0.3885
      6 O           5.1350   -0.2866    0.0000 O.3     1  UNL1       -0.3404
      7 O           6.8671   -2.2866    0.0000 O.3     1  UNL1       -0.3841
      8 O           5.1350   -3.2866    0.0000 O.3     1  UNL1       -0.3864
      9 O           3.4030   -2.2866    0.0000 O.3     1  UNL1       -0.3865
     10 O          10.5050    1.7254    0.0000 O.2     1  UNL1       -0.2511
     11 O           2.5369   -0.7866    0.0000 O.3     1  UNL1       -0.3924
     12 C           7.7331    1.2134    0.0000 C.3     1  UNL1        0.0959
     13 C           8.6793    0.9087    0.0000 C.3     1  UNL1        0.1247
     14 C           7.7331    2.2134    0.0000 C.3     1  UNL1        0.1251
     15 C           8.6793    2.5182    0.0000 C.3     1  UNL1        0.0918
     16 C           9.2629    1.7134    0.0000 C.3     1  UNL1        0.0166
     17 C           6.8671    0.7134    0.0000 C.3     1  UNL1        0.2129
     18 C           8.3719   -0.0429    0.0000 C.3     1  UNL1       -0.0242
     19 C           6.8671    2.7134    0.0000 C.2     1  UNL1       -0.0153
     20 C           6.0010    2.2134    0.0000 C.2     1  UNL1        0.0867
     21 C           6.0010   -0.7866    0.0000 C.3     1  UNL1        0.1918
     22 C           6.0010   -1.7866    0.0000 C.3     1  UNL1        0.1342
     23 C           5.1350   -2.2866    0.0000 C.3     1  UNL1        0.1141
     24 C           4.2690   -1.7866    0.0000 C.3     1  UNL1        0.1119
     25 C           4.2690   -0.7866    0.0000 C.3     1  UNL1        0.1130
     26 C          10.4022    0.7306    0.0000 C.2     1  UNL1        0.3045
     27 C           3.4030   -0.2866    0.0000 C.3     1  UNL1        0.0730
     28 C          11.2122    0.1443    0.0000 C.3     1  UNL1        0.0333
     29 H           7.8230    0.3682    0.0000 H       1  UNL1        0.0433
     30 H           8.2418    2.9575    0.0000 H       1  UNL1        0.0627
     31 H           9.7238    1.2987    0.0000 H       1  UNL1        0.0330
     32 H           9.7238    2.1282    0.0000 H       1  UNL1        0.0330
     33 H           7.4040    0.4034    0.0000 H       1  UNL1        0.1061
     34 H           7.7820    0.1477    0.0000 H       1  UNL1        0.0268
     35 H           8.1814   -0.6329    0.0000 H       1  UNL1        0.0268
     36 H           8.9619   -0.2334    0.0000 H       1  UNL1        0.0268
     37 H           6.8671    3.3334    0.0000 H       1  UNL1        0.0632
     38 H           7.1962    3.5234    0.0000 H       1  UNL1        0.2107
     39 H           5.4641    2.5234    0.0000 H       1  UNL1        0.1022
     40 H           6.0010   -0.1666    0.0000 H       1  UNL1        0.0939
     41 H           9.5966    3.5966    0.0000 H       1  UNL1        0.2099
     42 H           6.0010   -2.4066    0.0000 H       1  UNL1        0.0671
     43 H           4.5981   -2.5966    0.0000 H       1  UNL1        0.0648
     44 H           3.7320   -1.4766    0.0000 H       1  UNL1        0.0647
     45 H           4.2690   -0.1666    0.0000 H       1  UNL1        0.0647
     46 H           3.8015    0.1884    0.0000 H       1  UNL1        0.0584
     47 H           3.0044    0.1884    0.0000 H       1  UNL1        0.0584
     48 H           6.8671   -2.9066    0.0000 H       1  UNL1        0.2101
     49 H          10.8487   -0.3580    0.0000 H       1  UNL1        0.0342
     50 H          11.7144   -0.2193    0.0000 H       1  UNL1        0.0342
     51 H          11.5758    0.6465    0.0000 H       1  UNL1        0.0342
     52 H           4.5981   -3.5966    0.0000 H       1  UNL1        0.2100
     53 H           3.4030   -2.9066    0.0000 H       1  UNL1        0.2100
     54 H           2.0000   -0.4766    0.0000 H       1  UNL1        0.2095
@<TRIPOS>BOND
     1    13     1    1
     2     1    26    1
     3    14     2    1
     4     2    38    1
     5     3    17    1
     6     3    20    1
     7    17     4    1
     8    21     4    1
     9    15     5    1
    10     5    41    1
    11     6    21    1
    12     6    25    1
    13    22     7    1
    14     7    48    1
    15    23     8    1
    16     8    52    1
    17    24     9    1
    18     9    53    1
    19    10    26    2
    20    11    27    1
    21    11    54    1
    22    12    13    1
    23    12    14    1
    24    12    17    1
    25    12    29    1
    26    13    16    1
    27    13    18    1
    28    14    15    1
    29    14    19    1
    30    15    16    1
    31    15    30    1
    32    16    31    1
    33    16    32    1
    34    17    33    1
    35    18    34    1
    36    18    35    1
    37    18    36    1
    38    19    20    2
    39    19    37    1
    40    20    39    1
    41    21    22    1
    42    21    40    1
    43    22    23    1
    44    22    42    1
    45    23    24    1
    46    23    43    1
    47    24    25    1
    48    24    44    1
    49    25    27    1
    50    25    45    1
    51    26    28    1
    52    27    46    1
    53    27    47    1
    54    28    49    1
    55    28    50    1
    56    28    51    1
