@<TRIPOS>MOLECULE
IMPHY009742
 40 41 0 0 0
SMALL
GASTEIGER

@<TRIPOS>ATOM
      1 O           5.8503    2.0851    0.0000 O.2     1  UNL1       -0.2974
      2 C           4.3660    0.1340    0.0000 C.3     1  UNL1       -0.0220
      3 C           4.3660   -0.8660    0.0000 C.3     1  UNL1       -0.0164
      4 C           3.5000    0.6340    0.0000 C.3     1  UNL1       -0.0344
      5 C           5.3122    0.4387    0.0000 C.3     1  UNL1        0.0209
      6 C           5.3122   -1.1708    0.0000 C.3     1  UNL1       -0.0456
      7 C           5.8958   -0.3660    0.0000 C.3     1  UNL1       -0.0427
      8 C           2.6340    0.1340    0.0000 C.3     1  UNL1       -0.0460
      9 C           3.5000   -1.3660    0.0000 C.2     1  UNL1       -0.0732
     10 C           3.0000    1.5000    0.0000 C.3     1  UNL1       -0.0436
     11 C           2.6340   -0.8660    0.0000 C.3     1  UNL1       -0.0315
     12 C           6.0566    1.1066    0.0000 C.2     1  UNL1        0.1337
     13 C           2.0000    1.5000    0.0000 C.3     1  UNL1       -0.0624
     14 C           3.5000    2.3660    0.0000 C.3     1  UNL1       -0.0624
     15 C           3.5000   -2.3660    0.0000 C.2     1  UNL1       -0.0992
     16 C           7.0071    0.7959    0.0000 C.3     1  UNL1       -0.0058
     17 H           4.4560    0.9792    0.0000 H       1  UNL1        0.0316
     18 H           4.4560   -1.7112    0.0000 H       1  UNL1        0.0348
     19 H           2.9011    0.7944    0.0000 H       1  UNL1        0.0306
     20 H           5.0034    0.9763    0.0000 H       1  UNL1        0.0380
     21 H           5.0612   -1.7377    0.0000 H       1  UNL1        0.0271
     22 H           5.8496   -1.4800    0.0000 H       1  UNL1        0.0271
     23 H           6.3567   -0.7808    0.0000 H       1  UNL1        0.0272
     24 H           6.3567    0.0487    0.0000 H       1  UNL1        0.0272
     25 H           2.4219    0.7166    0.0000 H       1  UNL1        0.0271
     26 H           2.0234    0.0263    0.0000 H       1  UNL1        0.0271
     27 H           3.6200    1.5000    0.0000 H       1  UNL1        0.0298
     28 H           2.0234   -0.7584    0.0000 H       1  UNL1        0.0310
     29 H           2.4219   -1.4486    0.0000 H       1  UNL1        0.0310
     30 H           2.0000    2.1200    0.0000 H       1  UNL1        0.0232
     31 H           1.3800    1.5000    0.0000 H       1  UNL1        0.0232
     32 H           2.0000    0.8800    0.0000 H       1  UNL1        0.0232
     33 H           4.0369    2.0560    0.0000 H       1  UNL1        0.0232
     34 H           3.8100    2.9030    0.0000 H       1  UNL1        0.0232
     35 H           2.9631    2.6760    0.0000 H       1  UNL1        0.0232
     36 H           2.9631   -2.6760    0.0000 H       1  UNL1        0.0534
     37 H           4.0369   -2.6760    0.0000 H       1  UNL1        0.0534
     38 H           6.8145    0.2066    0.0000 H       1  UNL1        0.0306
     39 H           7.5964    0.6033    0.0000 H       1  UNL1        0.0306
     40 H           7.1997    1.3852    0.0000 H       1  UNL1        0.0306
@<TRIPOS>BOND
     1     1    12    2
     2     2     3    1
     3     2     4    1
     4     2     5    1
     5     2    17    1
     6     3     6    1
     7     3     9    1
     8     3    18    1
     9     4     8    1
    10     4    10    1
    11     4    19    1
    12     5     7    1
    13     5    12    1
    14     5    20    1
    15     6     7    1
    16     6    21    1
    17     6    22    1
    18     7    23    1
    19     7    24    1
    20     8    11    1
    21     8    25    1
    22     8    26    1
    23     9    11    1
    24     9    15    2
    25    10    13    1
    26    10    14    1
    27    10    27    1
    28    11    28    1
    29    11    29    1
    30    12    16    1
    31    13    30    1
    32    13    31    1
    33    13    32    1
    34    14    33    1
    35    14    34    1
    36    14    35    1
    37    15    36    1
    38    15    37    1
    39    16    38    1
    40    16    39    1
    41    16    40    1
