@<TRIPOS>MOLECULE
IMPHY015743
 21 22 0 0 0
SMALL
GASTEIGER

@<TRIPOS>ATOM
      1 O           6.2781    2.1530    0.0000 O.2     1  UNL1       -0.3007
      2 N           4.6783   -1.5637    0.0000 N.ar    1  UNL1       -0.3604
      3 C           3.7320   -0.2590    0.0000 C.ar    1  UNL1        0.0032
      4 C           4.6783    0.0458    0.0000 C.ar    1  UNL1       -0.0156
      5 C           3.7320   -1.2590    0.0000 C.ar    1  UNL1        0.0467
      6 C           5.2619   -0.7590    0.0000 C.ar    1  UNL1        0.0063
      7 C           4.9889    0.9963    0.0000 C.3     1  UNL1        0.0300
      8 C           2.8660    0.2410    0.0000 C.ar    1  UNL1       -0.0523
      9 C           2.8660   -1.7590    0.0000 C.ar    1  UNL1       -0.0378
     10 C           2.0000   -0.2590    0.0000 C.ar    1  UNL1       -0.0611
     11 C           2.0000   -1.2590    0.0000 C.ar    1  UNL1       -0.0598
     12 C           5.9674    1.2025    0.0000 C.2     1  UNL1        0.1247
     13 H           5.8819   -0.7590    0.0000 H       1  UNL1        0.0810
     14 H           4.8709   -2.1530    0.0000 H       1  UNL1        0.1653
     15 H           4.9684    1.6159    0.0000 H       1  UNL1        0.0388
     16 H           4.3751    1.0836    0.0000 H       1  UNL1        0.0388
     17 H           2.8660    0.8610    0.0000 H       1  UNL1        0.0624
     18 H           2.8660   -2.3790    0.0000 H       1  UNL1        0.0638
     19 H           1.4631    0.0510    0.0000 H       1  UNL1        0.0618
     20 H           1.4631   -1.5690    0.0000 H       1  UNL1        0.0618
     21 H           6.3815    0.7410    0.0000 H       1  UNL1        0.1030
@<TRIPOS>BOND
     1     1    12    2
     2     2     5   ar
     3     2     6   ar
     4     2    14    1
     5     3     4   ar
     6     3     5   ar
     7     3     8   ar
     8     4     6   ar
     9     4     7    1
    10     5     9   ar
    11     6    13    1
    12     7    12    1
    13     7    15    1
    14     7    16    1
    15     8    10   ar
    16     8    17    1
    17     9    11   ar
    18     9    18    1
    19    10    11   ar
    20    10    19    1
    21    11    20    1
    22    12    21    1
