@<TRIPOS>MOLECULE
IMPHY010379
 54 59 0 0 0
SMALL
GASTEIGER

@<TRIPOS>ATOM
      1 O           4.7651   -1.2181    0.0000 O.3     1  UNL1       -0.4865
      2 O           8.1281   -1.0857    0.0000 O.3     1  UNL1       -0.4878
      3 O           6.3842    1.9905    0.0000 O.2     1  UNL1       -0.4215
      4 O           8.1166    1.9836    0.0000 O.3     1  UNL1       -0.3865
      5 O           5.4900    3.5182    0.0000 O.2     1  UNL1       -0.2452
      6 C           5.7539   -2.9311    0.0000 C.3     1  UNL1        0.0131
      7 C           6.1589   -2.0228    0.0000 C.3     1  UNL1        0.0371
      8 C           5.1702   -2.1259    0.0000 C.3     1  UNL1        0.1136
      9 C           6.3682   -1.0510    0.0000 C.ar    1  UNL1        0.0443
     10 C           4.9444   -3.5182    0.0000 C.3     1  UNL1       -0.0557
     11 C           6.6671   -3.3387    0.0000 C.3     1  UNL1       -0.0557
     12 C           5.5021   -0.5510    0.0000 C.ar    1  UNL1        0.1392
     13 C           7.2342   -0.5510    0.0000 C.ar    1  UNL1        0.1371
     14 C           5.5021    0.4490    0.0000 C.ar    1  UNL1        0.0678
     15 C           7.2342    0.4490    0.0000 C.ar    1  UNL1        0.0662
     16 C           6.3682    0.9490    0.0000 C.ar    1  UNL1        0.1523
     17 C           8.1281    0.9836    0.0000 C.3     1  UNL1        0.0930
     18 C           9.0342    0.4698    0.0000 C.3     1  UNL1        0.0233
     19 C           9.0342   -0.5718    0.0000 C.3     1  UNL1        0.1026
     20 C           4.5921    0.9558    0.0000 C.ar    1  UNL1        0.0031
     21 C           9.8983    0.9731    0.0000 C.3     1  UNL1       -0.0564
     22 C           9.8983   -1.0752    0.0000 C.3     1  UNL1       -0.0275
     23 C           4.5841    1.9974    0.0000 C.ar    1  UNL1        0.0314
     24 C           3.7319    0.4458    0.0000 C.ar    1  UNL1       -0.0169
     25 C           5.4862    2.5182    0.0000 C.ar    1  UNL1        0.3378
     26 C           2.8602    0.9358    0.0000 C.ar    1  UNL1       -0.0540
     27 C           3.7435   -0.5541    0.0000 C.ar    1  UNL1       -0.0540
     28 C           2.0000    0.4258    0.0000 C.ar    1  UNL1       -0.0612
     29 C           2.8833   -1.0641    0.0000 C.ar    1  UNL1       -0.0612
     30 C           2.0116   -0.5741    0.0000 C.ar    1  UNL1       -0.0617
     31 H           6.9669   -2.2868    0.0000 H       1  UNL1        0.0394
     32 H           4.4340   -2.5508    0.0000 H       1  UNL1        0.0745
     33 H           4.5804   -3.0163    0.0000 H       1  UNL1        0.0236
     34 H           4.4424   -3.8822    0.0000 H       1  UNL1        0.0236
     35 H           5.3084   -4.0201    0.0000 H       1  UNL1        0.0236
     36 H           6.4144   -3.9048    0.0000 H       1  UNL1        0.0236
     37 H           7.2332   -3.5913    0.0000 H       1  UNL1        0.0236
     38 H           6.9197   -2.7725    0.0000 H       1  UNL1        0.0236
     39 H           8.6620    1.2988    0.0000 H       1  UNL1        0.0650
     40 H           9.0306    1.0898    0.0000 H       1  UNL1        0.0362
     41 H           9.0306   -1.1918    0.0000 H       1  UNL1        0.0734
     42 H          10.2103    0.4374    0.0000 H       1  UNL1        0.0234
     43 H          10.4340    1.2852    0.0000 H       1  UNL1        0.0234
     44 H           9.5862    1.5089    0.0000 H       1  UNL1        0.0234
     45 H           9.5862   -1.6109    0.0000 H       1  UNL1        0.0265
     46 H          10.4340   -1.3873    0.0000 H       1  UNL1        0.0265
     47 H          10.2103   -0.5394    0.0000 H       1  UNL1        0.0265
     48 H           4.0460    2.3053    0.0000 H       1  UNL1        0.0695
     49 H           8.6499    2.2998    0.0000 H       1  UNL1        0.2102
     50 H           2.8530    1.5558    0.0000 H       1  UNL1        0.0624
     51 H           4.2840   -0.8579    0.0000 H       1  UNL1        0.0624
     52 H           1.4595    0.7296    0.0000 H       1  UNL1        0.0618
     53 H           2.8905   -1.6840    0.0000 H       1  UNL1        0.0618
     54 H           1.4782   -0.8903    0.0000 H       1  UNL1        0.0618
@<TRIPOS>BOND
     1     1     8    1
     2     1    12    1
     3     2    13    1
     4     2    19    1
     5     3    16   ar
     6     3    25   ar
     7    17     4    1
     8     4    49    1
     9     5    25    2
    10     6     7    1
    11     6     8    1
    12     6    10    1
    13     6    11    1
    14     7     8    1
    15     7     9    1
    16     7    31    1
    17     8    32    1
    18     9    12   ar
    19     9    13   ar
    20    10    33    1
    21    10    34    1
    22    10    35    1
    23    11    36    1
    24    11    37    1
    25    11    38    1
    26    12    14   ar
    27    13    15   ar
    28    14    16   ar
    29    14    20   ar
    30    15    16   ar
    31    15    17    1
    32    17    18    1
    33    17    39    1
    34    18    19    1
    35    18    21    1
    36    18    40    1
    37    19    22    1
    38    19    41    1
    39    20    23   ar
    40    20    24    1
    41    21    42    1
    42    21    43    1
    43    21    44    1
    44    22    45    1
    45    22    46    1
    46    22    47    1
    47    23    25   ar
    48    23    48    1
    49    24    26   ar
    50    24    27   ar
    51    26    28   ar
    52    26    50    1
    53    27    29   ar
    54    27    51    1
    55    28    30   ar
    56    28    52    1
    57    29    30   ar
    58    29    53    1
    59    30    54    1
