@<TRIPOS>MOLECULE
IMPHY004680
 26 27 0 0 0
SMALL
GASTEIGER

@<TRIPOS>ATOM
      1 C           3.5388    0.3800    0.0000 C.3     1  UNL1       -0.0053
      2 C           3.5388   -0.6200    0.0000 C.3     1  UNL1       -0.0249
      3 C           4.4054   -0.1200    0.0000 C.3     1  UNL1       -0.0392
      4 C           2.5878   -0.9290    0.0000 C.3     1  UNL1       -0.0221
      5 C           3.5388    1.3800    0.0000 C.3     1  UNL1       -0.0373
      6 C           2.5878    0.6891    0.0000 C.2     1  UNL1       -0.0810
      7 C           2.0000   -0.1200    0.0000 C.2     1  UNL1       -0.0843
      8 C           2.2788   -1.8800    0.0000 C.3     1  UNL1       -0.0587
      9 C           4.4049    1.8800    0.0000 C.3     1  UNL1       -0.0619
     10 C           2.6728    1.8800    0.0000 C.3     1  UNL1       -0.0619
     11 H           3.7910   -1.1864    0.0000 H       1  UNL1        0.0315
     12 H           4.8039   -0.5949    0.0000 H       1  UNL1        0.0277
     13 H           4.8039    0.3550    0.0000 H       1  UNL1        0.0277
     14 H           1.9754   -1.0260    0.0000 H       1  UNL1        0.0343
     15 H           3.5388    2.0000    0.0000 H       1  UNL1        0.0304
     16 H           2.3962    1.2787    0.0000 H       1  UNL1        0.0575
     17 H           1.3800   -0.1200    0.0000 H       1  UNL1        0.0572
     18 H           1.6891   -1.6884    0.0000 H       1  UNL1        0.0235
     19 H           2.0872   -2.4697    0.0000 H       1  UNL1        0.0235
     20 H           2.8684   -2.0716    0.0000 H       1  UNL1        0.0235
     21 H           4.7149    1.3431    0.0000 H       1  UNL1        0.0233
     22 H           4.9418    2.1900    0.0000 H       1  UNL1        0.0233
     23 H           4.0949    2.4170    0.0000 H       1  UNL1        0.0233
     24 H           2.9828    2.4170    0.0000 H       1  UNL1        0.0233
     25 H           2.1359    2.1900    0.0000 H       1  UNL1        0.0233
     26 H           2.3628    1.3431    0.0000 H       1  UNL1        0.0233
@<TRIPOS>BOND
     1     1     2    1
     2     1     3    1
     3     1     5    1
     4     1     6    1
     5     2     3    1
     6     2     4    1
     7     2    11    1
     8     3    12    1
     9     3    13    1
    10     4     7    1
    11     4     8    1
    12     4    14    1
    13     5     9    1
    14     5    10    1
    15     5    15    1
    16     6     7    2
    17     6    16    1
    18     7    17    1
    19     8    18    1
    20     8    19    1
    21     8    20    1
    22     9    21    1
    23     9    22    1
    24     9    23    1
    25    10    24    1
    26    10    25    1
    27    10    26    1
