@<TRIPOS>MOLECULE
IMPHY015675
 120 120 0 0 0
SMALL
GASTEIGER

@<TRIPOS>ATOM
      1 SI          5.5640   -2.2500    0.0000 Si      1  UNL1        0.0000
      2 SI          3.8320   -2.2500    0.0000 Si      1  UNL1        0.0000
      3 SI          7.2960   -2.2500    0.0000 Si      1  UNL1        0.0000
      4 SI          2.9659   -0.7500    0.0000 Si      1  UNL1        0.0000
      5 SI          9.0281   -2.2500    0.0000 Si      1  UNL1        0.0000
      6 SI          3.8320    0.7500    0.0000 Si      1  UNL1        0.0000
      7 SI          9.8941   -0.7500    0.0000 Si      1  UNL1        0.0000
      8 SI          5.5640    0.7500    0.0000 Si      1  UNL1        0.0000
      9 SI         10.7602    0.7500    0.0000 Si      1  UNL1        0.0000
     10 SI          6.4300    2.2500    0.0000 Si      1  UNL1        0.0000
     11 SI          9.8941    2.2500    0.0000 Si      1  UNL1        0.0000
     12 SI          8.1621    2.2500    0.0000 Si      1  UNL1        0.0000
     13 O           4.6980   -1.7500    0.0000 O.3     1  UNL1        0.0000
     14 O           6.4300   -1.7500    0.0000 O.3     1  UNL1        0.0000
     15 O           2.9659   -1.7500    0.0000 O.3     1  UNL1        0.0000
     16 O           8.1621   -1.7500    0.0000 O.3     1  UNL1        0.0000
     17 O           3.8320   -0.2500    0.0000 O.3     1  UNL1        0.0000
     18 O           9.8941   -1.7500    0.0000 O.3     1  UNL1        0.0000
     19 O           4.6980    1.2500    0.0000 O.3     1  UNL1        0.0000
     20 O          10.7602   -0.2500    0.0000 O.3     1  UNL1        0.0000
     21 O           6.4300    1.2500    0.0000 O.3     1  UNL1        0.0000
     22 O           9.8941    1.2500    0.0000 O.3     1  UNL1        0.0000
     23 O           7.2960    2.7500    0.0000 O.3     1  UNL1        0.0000
     24 O           9.0281    2.7500    0.0000 O.3     1  UNL1        0.0000
     25 C           4.9905   -3.0692    0.0000 C.3     1  UNL1        0.0000
     26 C           5.8228   -3.2159    0.0000 C.3     1  UNL1        0.0000
     27 C           3.1249   -2.9572    0.0000 C.3     1  UNL1        0.0000
     28 C           4.0908   -3.2159    0.0000 C.3     1  UNL1        0.0000
     29 C           7.8696   -3.0692    0.0000 C.3     1  UNL1        0.0000
     30 C           7.0372   -3.2159    0.0000 C.3     1  UNL1        0.0000
     31 C           2.0000   -1.0088    0.0000 C.3     1  UNL1        0.0000
     32 C           2.2588   -0.0429    0.0000 C.3     1  UNL1        0.0000
     33 C           9.7352   -2.9571    0.0000 C.3     1  UNL1        0.0000
     34 C           8.7693   -3.2159    0.0000 C.3     1  UNL1        0.0000
     35 C           3.5731    1.7159    0.0000 C.3     1  UNL1        0.0000
     36 C           2.8660    1.0088    0.0000 C.3     1  UNL1        0.0000
     37 C           9.1870   -0.0429    0.0000 C.3     1  UNL1        0.0000
     38 C           8.9282   -1.0088    0.0000 C.3     1  UNL1        0.0000
     39 C           6.2711    0.0429    0.0000 C.3     1  UNL1        0.0000
     40 C           5.3052   -0.2159    0.0000 C.3     1  UNL1        0.0000
     41 C          11.7261    0.4912    0.0000 C.3     1  UNL1        0.0000
     42 C          11.4673    1.4571    0.0000 C.3     1  UNL1        0.0000
     43 C           6.1712    3.2159    0.0000 C.3     1  UNL1        0.0000
     44 C           5.4641    2.5088    0.0000 C.3     1  UNL1        0.0000
     45 C          10.1529    3.2159    0.0000 C.3     1  UNL1        0.0000
     46 C          10.8601    2.5088    0.0000 C.3     1  UNL1        0.0000
     47 C           7.9033    1.2841    0.0000 C.3     1  UNL1        0.0000
     48 C           8.8692    1.5429    0.0000 C.3     1  UNL1        0.0000
     49 H           4.4826   -2.7136    0.0000 H       1  UNL1        0.0000
     50 H           4.6349   -3.5771    0.0000 H       1  UNL1        0.0000
     51 H           5.4984   -3.4248    0.0000 H       1  UNL1        0.0000
     52 H           5.2240   -3.3764    0.0000 H       1  UNL1        0.0000
     53 H           5.9833   -3.8148    0.0000 H       1  UNL1        0.0000
     54 H           6.4217   -3.0555    0.0000 H       1  UNL1        0.0000
     55 H           2.6865   -2.5188    0.0000 H       1  UNL1        0.0000
     56 H           2.6865   -3.3956    0.0000 H       1  UNL1        0.0000
     57 H           3.5633   -3.3955    0.0000 H       1  UNL1        0.0000
     58 H           3.4919   -3.3764    0.0000 H       1  UNL1        0.0000
     59 H           4.2512   -3.8148    0.0000 H       1  UNL1        0.0000
     60 H           4.6896   -3.0555    0.0000 H       1  UNL1        0.0000
     61 H           7.3618   -3.4248    0.0000 H       1  UNL1        0.0000
     62 H           8.2253   -3.5770    0.0000 H       1  UNL1        0.0000
     63 H           8.3775   -2.7135    0.0000 H       1  UNL1        0.0000
     64 H           6.4384   -3.0555    0.0000 H       1  UNL1        0.0000
     65 H           6.8768   -3.8148    0.0000 H       1  UNL1        0.0000
     66 H           7.6361   -3.3764    0.0000 H       1  UNL1        0.0000
     67 H           1.8395   -0.4099    0.0000 H       1  UNL1        0.0000
     68 H           1.4011   -1.1693    0.0000 H       1  UNL1        0.0000
     69 H           2.1605   -1.6077    0.0000 H       1  UNL1        0.0000
     70 H           2.6972    0.3955    0.0000 H       1  UNL1        0.0000
     71 H           1.8204    0.3955    0.0000 H       1  UNL1        0.0000
     72 H           1.8204   -0.4813    0.0000 H       1  UNL1        0.0000
     73 H           9.2968   -3.3955    0.0000 H       1  UNL1        0.0000
     74 H          10.1736   -3.3955    0.0000 H       1  UNL1        0.0000
     75 H          10.1736   -2.5187    0.0000 H       1  UNL1        0.0000
     76 H           8.1704   -3.0555    0.0000 H       1  UNL1        0.0000
     77 H           8.6088   -3.8148    0.0000 H       1  UNL1        0.0000
     78 H           9.3682   -3.3764    0.0000 H       1  UNL1        0.0000
     79 H           4.1720    1.8764    0.0000 H       1  UNL1        0.0000
     80 H           3.4127    2.3148    0.0000 H       1  UNL1        0.0000
     81 H           2.9743    1.5555    0.0000 H       1  UNL1        0.0000
     82 H           3.0265    1.6077    0.0000 H       1  UNL1        0.0000
     83 H           2.2672    1.1693    0.0000 H       1  UNL1        0.0000
     84 H           2.7056    0.4099    0.0000 H       1  UNL1        0.0000
     85 H           9.6254    0.3955    0.0000 H       1  UNL1        0.0000
     86 H           8.7486    0.3955    0.0000 H       1  UNL1        0.0000
     87 H           8.7486   -0.4813    0.0000 H       1  UNL1        0.0000
     88 H           8.7677   -0.4099    0.0000 H       1  UNL1        0.0000
     89 H           8.3293   -1.1693    0.0000 H       1  UNL1        0.0000
     90 H           9.0887   -1.6077    0.0000 H       1  UNL1        0.0000
     91 H           5.8327   -0.3955    0.0000 H       1  UNL1        0.0000
     92 H           6.7095   -0.3955    0.0000 H       1  UNL1        0.0000
     93 H           6.7095    0.4813    0.0000 H       1  UNL1        0.0000
     94 H           4.7063   -0.0555    0.0000 H       1  UNL1        0.0000
     95 H           5.1447   -0.8148    0.0000 H       1  UNL1        0.0000
     96 H           5.9041   -0.3764    0.0000 H       1  UNL1        0.0000
     97 H          11.5656   -0.1077    0.0000 H       1  UNL1        0.0000
     98 H          12.3250    0.3307    0.0000 H       1  UNL1        0.0000
     99 H          11.8865    1.0900    0.0000 H       1  UNL1        0.0000
    100 H          11.9057    1.0187    0.0000 H       1  UNL1        0.0000
    101 H          11.9057    1.8955    0.0000 H       1  UNL1        0.0000
    102 H          11.0289    1.8955    0.0000 H       1  UNL1        0.0000
    103 H           6.7701    3.3764    0.0000 H       1  UNL1        0.0000
    104 H           6.0107    3.8148    0.0000 H       1  UNL1        0.0000
    105 H           5.5723    3.0555    0.0000 H       1  UNL1        0.0000
    106 H           5.6246    3.1077    0.0000 H       1  UNL1        0.0000
    107 H           4.8652    2.6693    0.0000 H       1  UNL1        0.0000
    108 H           5.3036    1.9100    0.0000 H       1  UNL1        0.0000
    109 H          10.7518    3.0555    0.0000 H       1  UNL1        0.0000
    110 H          10.3134    3.8148    0.0000 H       1  UNL1        0.0000
    111 H           9.5541    3.3764    0.0000 H       1  UNL1        0.0000
    112 H          11.0205    1.9100    0.0000 H       1  UNL1        0.0000
    113 H          11.4589    2.6693    0.0000 H       1  UNL1        0.0000
    114 H          10.6996    3.1077    0.0000 H       1  UNL1        0.0000
    115 H           7.3044    1.4445    0.0000 H       1  UNL1        0.0000
    116 H           7.7428    0.6852    0.0000 H       1  UNL1        0.0000
    117 H           8.5021    1.1236    0.0000 H       1  UNL1        0.0000
    118 H           8.4308    1.1045    0.0000 H       1  UNL1        0.0000
    119 H           9.3076    1.1045    0.0000 H       1  UNL1        0.0000
    120 H           9.3076    1.9813    0.0000 H       1  UNL1        0.0000
@<TRIPOS>BOND
     1     1    13    1
     2     1    14    1
     3     1    25    1
     4     1    26    1
     5     2    13    1
     6     2    15    1
     7     2    27    1
     8     2    28    1
     9     3    14    1
    10     3    16    1
    11     3    29    1
    12     3    30    1
    13     4    15    1
    14     4    17    1
    15     4    31    1
    16     4    32    1
    17     5    16    1
    18     5    18    1
    19     5    33    1
    20     5    34    1
    21     6    17    1
    22     6    19    1
    23     6    35    1
    24     6    36    1
    25     7    18    1
    26     7    20    1
    27     7    37    1
    28     7    38    1
    29     8    19    1
    30     8    21    1
    31     8    39    1
    32     8    40    1
    33     9    20    1
    34     9    22    1
    35     9    41    1
    36     9    42    1
    37    10    21    1
    38    10    23    1
    39    10    43    1
    40    10    44    1
    41    11    22    1
    42    11    24    1
    43    11    45    1
    44    11    46    1
    45    12    23    1
    46    12    24    1
    47    12    47    1
    48    12    48    1
    49    25    49    1
    50    25    50    1
    51    25    51    1
    52    26    52    1
    53    26    53    1
    54    26    54    1
    55    27    55    1
    56    27    56    1
    57    27    57    1
    58    28    58    1
    59    28    59    1
    60    28    60    1
    61    29    61    1
    62    29    62    1
    63    29    63    1
    64    30    64    1
    65    30    65    1
    66    30    66    1
    67    31    67    1
    68    31    68    1
    69    31    69    1
    70    32    70    1
    71    32    71    1
    72    32    72    1
    73    33    73    1
    74    33    74    1
    75    33    75    1
    76    34    76    1
    77    34    77    1
    78    34    78    1
    79    35    79    1
    80    35    80    1
    81    35    81    1
    82    36    82    1
    83    36    83    1
    84    36    84    1
    85    37    85    1
    86    37    86    1
    87    37    87    1
    88    38    88    1
    89    38    89    1
    90    38    90    1
    91    39    91    1
    92    39    92    1
    93    39    93    1
    94    40    94    1
    95    40    95    1
    96    40    96    1
    97    41    97    1
    98    41    98    1
    99    41    99    1
   100    42   100    1
   101    42   101    1
   102    42   102    1
   103    43   103    1
   104    43   104    1
   105    43   105    1
   106    44   106    1
   107    44   107    1
   108    44   108    1
   109    45   109    1
   110    45   110    1
   111    45   111    1
   112    46   112    1
   113    46   113    1
   114    46   114    1
   115    47   115    1
   116    47   116    1
   117    47   117    1
   118    48   118    1
   119    48   119    1
   120    48   120    1
