@<TRIPOS>MOLECULE
IMPHY012026
 7 6 0 0 0
SMALL
GASTEIGER

@<TRIPOS>ATOM
      1 O           2.5369    0.4400    0.0000 O.3     1  UNL1       -0.4753
      2 O           3.4030   -1.0600    0.0000 O.2     1  UNL1       -0.2422
      3 O           5.1350   -0.0600    0.0000 O.2     1  UNL1       -0.2888
      4 C           3.4030   -0.0600    0.0000 C.2     1  UNL1        0.3694
      5 C           4.2690    0.4400    0.0000 C.2     1  UNL1        0.2264
      6 H           4.2690    1.0600    0.0000 H       1  UNL1        0.1151
      7 H           2.0000    0.1300    0.0000 H       1  UNL1        0.2955
@<TRIPOS>BOND
     1     1     4    1
     2     1     7    1
     3     2     4    2
     4     3     5    2
     5     4     5    1
     6     5     6    1
