@<TRIPOS>MOLECULE
IMPHY004367
 31 33 0 0 0
SMALL
GASTEIGER

@<TRIPOS>ATOM
      1 O           6.0682   -1.7653    0.0000 O.2     1  UNL1       -0.4178
      2 O           5.1804    1.7662    0.0000 O.3     1  UNL1       -0.5028
      3 O           4.3198   -2.7999    0.0000 O.3     1  UNL1       -0.5009
      4 O           6.9464    2.8040    0.0000 O.3     1  UNL1       -0.5009
      5 O           2.5381   -1.7894    0.0000 O.3     1  UNL1       -0.5032
      6 O           8.7202    1.7798    0.0000 O.3     1  UNL1       -0.5032
      7 O           7.8003   -1.7653    0.0000 O.2     1  UNL1       -0.2445
      8 O           2.6876    0.8806    0.0000 O.3     1  UNL1       -0.4771
      9 O           4.0273    1.9785    0.0000 O.2     1  UNL1       -0.2451
     10 C           5.2022   -0.2653    0.0000 C.ar    1  UNL1        0.0468
     11 C           6.0682    0.2347    0.0000 C.ar    1  UNL1        0.0458
     12 C           6.9343   -0.2653    0.0000 C.ar    1  UNL1        0.0744
     13 C           5.2022   -1.2653    0.0000 C.ar    1  UNL1        0.1854
     14 C           4.3083    0.2694    0.0000 C.ar    1  UNL1        0.0738
     15 C           6.0522    1.2762    0.0000 C.ar    1  UNL1        0.1708
     16 C           4.3083   -1.7999    0.0000 C.ar    1  UNL1        0.2022
     17 C           7.8443    0.2416    0.0000 C.ar    1  UNL1       -0.0017
     18 C           6.9343   -1.2653    0.0000 C.ar    1  UNL1        0.3454
     19 C           3.4022   -0.2445    0.0000 C.ar    1  UNL1       -0.0017
     20 C           6.9502    1.8040    0.0000 C.ar    1  UNL1        0.2012
     21 C           3.4022   -1.2861    0.0000 C.ar    1  UNL1        0.1628
     22 C           7.8523    1.2832    0.0000 C.ar    1  UNL1        0.1628
     23 C           3.6744    1.0428    0.0000 C.2     1  UNL1        0.3376
     24 H           8.3776   -0.0746    0.0000 H       1  UNL1        0.0664
     25 H           2.8665    0.0676    0.0000 H       1  UNL1        0.0664
     26 H           5.1733    2.3862    0.0000 H       1  UNL1        0.2923
     27 H           3.7865   -3.1160    0.0000 H       1  UNL1        0.2924
     28 H           7.4821    3.1160    0.0000 H       1  UNL1        0.2924
     29 H           2.0000   -1.4815    0.0000 H       1  UNL1        0.2923
     30 H           9.2560    1.4678    0.0000 H       1  UNL1        0.2923
     31 H           2.2946    1.3601    0.0000 H       1  UNL1        0.2954
@<TRIPOS>BOND
     1     1    13   ar
     2     1    18   ar
     3     2    15    1
     4     2    26    1
     5     3    16    1
     6     3    27    1
     7     4    20    1
     8     4    28    1
     9     5    21    1
    10     5    29    1
    11     6    22    1
    12     6    30    1
    13     7    18    2
    14     8    23    1
    15     8    31    1
    16     9    23    2
    17    10    11   ar
    18    10    13   ar
    19    10    14   ar
    20    11    12   ar
    21    11    15   ar
    22    12    17   ar
    23    12    18   ar
    24    13    16   ar
    25    14    19   ar
    26    14    23    1
    27    15    20   ar
    28    16    21   ar
    29    17    22   ar
    30    17    24    1
    31    19    21   ar
    32    19    25    1
    33    20    22   ar
