@<TRIPOS>MOLECULE
IMPHY016512
 25 25 0 0 0
SMALL
GASTEIGER

@<TRIPOS>ATOM
      1 O           3.7320    1.2500    0.0000 O.3     1  UNL1       -0.4603
      2 O           4.5981   -0.2500    0.0000 O.2     1  UNL1       -0.2505
      3 C           2.8660   -1.2500    0.0000 C.ar    1  UNL1       -0.0368
      4 C           2.8660   -0.2500    0.0000 C.3     1  UNL1        0.0701
      5 C           2.0000   -1.7500    0.0000 C.ar    1  UNL1       -0.0581
      6 C           3.7320   -1.7500    0.0000 C.ar    1  UNL1       -0.0581
      7 C           3.7320    0.2500    0.0000 C.2     1  UNL1        0.3117
      8 C           2.0000   -2.7500    0.0000 C.ar    1  UNL1       -0.0615
      9 C           3.7320   -2.7500    0.0000 C.ar    1  UNL1       -0.0615
     10 C           2.8660   -3.2500    0.0000 C.ar    1  UNL1       -0.0617
     11 C           4.5981    1.7500    0.0000 C.3     1  UNL1        0.1105
     12 C           4.5981    2.7500    0.0000 C.2     1  UNL1       -0.0541
     13 C           5.4641    3.2500    0.0000 C.2     1  UNL1       -0.0995
     14 H           2.6540    0.3326    0.0000 H       1  UNL1        0.0426
     15 H           2.2554   -0.3577    0.0000 H       1  UNL1        0.0426
     16 H           1.4631   -1.4400    0.0000 H       1  UNL1        0.0620
     17 H           4.2690   -1.4400    0.0000 H       1  UNL1        0.0620
     18 H           1.4631   -3.0600    0.0000 H       1  UNL1        0.0618
     19 H           4.2690   -3.0600    0.0000 H       1  UNL1        0.0618
     20 H           2.8660   -3.8700    0.0000 H       1  UNL1        0.0618
     21 H           4.8101    1.1674    0.0000 H       1  UNL1        0.0742
     22 H           5.2087    1.8577    0.0000 H       1  UNL1        0.0742
     23 H           4.0611    3.0600    0.0000 H       1  UNL1        0.0600
     24 H           6.0010    2.9400    0.0000 H       1  UNL1        0.0533
     25 H           5.4641    3.8700    0.0000 H       1  UNL1        0.0533
@<TRIPOS>BOND
     1     1     7    1
     2     1    11    1
     3     2     7    2
     4     3     4    1
     5     3     5   ar
     6     3     6   ar
     7     4     7    1
     8     4    14    1
     9     4    15    1
    10     5     8   ar
    11     5    16    1
    12     6     9   ar
    13     6    17    1
    14     8    10   ar
    15     8    18    1
    16     9    10   ar
    17     9    19    1
    18    10    20    1
    19    11    12    1
    20    11    21    1
    21    11    22    1
    22    12    13    2
    23    12    23    1
    24    13    24    1
    25    13    25    1
