@<TRIPOS>MOLECULE
IMPHY005875
 53 57 0 0 0
SMALL
GASTEIGER

@<TRIPOS>ATOM
      1 O           7.2342    0.6766    0.0000 O.2     1  UNL1       -0.4532
      2 O           9.0876    3.7748    0.0000 O.3     1  UNL1       -0.4814
      3 O           4.5841   -0.8718    0.0000 O.3     1  UNL1       -0.4791
      4 O           4.6361    2.1766    0.0000 O.2     1  UNL1       -0.2865
      5 O           5.4803    3.7081    0.0000 O.3     1  UNL1       -0.5058
      6 O           6.4213   -4.0201    0.0000 O.3     1  UNL1       -0.5066
      7 C           5.5021    0.6766    0.0000 C.ar    1  UNL1        0.0869
      8 C          10.0273    3.2323    0.0000 C.3     1  UNL1        0.1235
      9 C           4.5921    0.1698    0.0000 C.3     1  UNL1        0.1507
     10 C           7.2342    1.6766    0.0000 C.ar    1  UNL1        0.1534
     11 C           8.1442    2.1835    0.0000 C.ar    1  UNL1        0.0597
     12 C           6.3682    0.1766    0.0000 C.ar    1  UNL1        0.1498
     13 C           6.3682    2.1766    0.0000 C.ar    1  UNL1        0.1065
     14 C           8.1522    3.2251    0.0000 C.ar    1  UNL1        0.1359
     15 C           5.5021    1.6766    0.0000 C.ar    1  UNL1        0.2036
     16 C           6.3842   -0.8649    0.0000 C.ar    1  UNL1        0.0597
     17 C          10.0189    2.1473    0.0000 C.2     1  UNL1       -0.0408
     18 C           9.0710    1.6194    0.0000 C.2     1  UNL1       -0.0478
     19 C           6.3521    3.2181    0.0000 C.ar    1  UNL1        0.1347
     20 C           5.4862   -1.3926    0.0000 C.ar    1  UNL1        0.1360
     21 C           7.2501    3.7459    0.0000 C.ar    1  UNL1        0.0231
     22 C          11.0273    3.2284    0.0000 C.3     1  UNL1       -0.0215
     23 C          10.5306    4.0964    0.0000 C.3     1  UNL1       -0.0215
     24 C           3.7319    0.6797    0.0000 C.2     1  UNL1       -0.0406
     25 C           7.3361   -1.3855    0.0000 C.ar    1  UNL1       -0.0441
     26 C           5.4778   -2.4776    0.0000 C.ar    1  UNL1        0.0223
     27 C           2.8602    0.1898    0.0000 C.2     1  UNL1       -0.0759
     28 C           7.3529   -2.4704    0.0000 C.ar    1  UNL1       -0.0193
     29 C           6.4174   -3.0201    0.0000 C.ar    1  UNL1        0.1204
     30 C           2.0000    0.6998    0.0000 C.3     1  UNL1       -0.0439
     31 C           2.8486   -0.8101    0.0000 C.3     1  UNL1       -0.0439
     32 H           4.0522   -0.1350    0.0000 H       1  UNL1        0.0833
     33 H          10.5522    1.8311    0.0000 H       1  UNL1        0.0611
     34 H           9.0591    0.9995    0.0000 H       1  UNL1        0.0624
     35 H           7.2477    4.3659    0.0000 H       1  UNL1        0.0691
     36 H          11.0663    3.7843    0.0000 H       1  UNL1        0.0271
     37 H          10.8427    4.6321    0.0000 H       1  UNL1        0.0271
     38 H           9.9949    4.4084    0.0000 H       1  UNL1        0.0271
     39 H          11.0249    2.6084    0.0000 H       1  UNL1        0.0271
     40 H          11.6472    3.2260    0.0000 H       1  UNL1        0.0271
     41 H          11.0296    3.8484    0.0000 H       1  UNL1        0.0271
     42 H           3.7391    1.2997    0.0000 H       1  UNL1        0.0611
     43 H           7.8670   -1.0652    0.0000 H       1  UNL1        0.0627
     44 H           4.9397   -2.7855    0.0000 H       1  UNL1        0.0691
     45 H           7.8934   -2.7742    0.0000 H       1  UNL1        0.0654
     46 H           5.4732    4.3280    0.0000 H       1  UNL1        0.2922
     47 H           2.3162    1.2331    0.0000 H       1  UNL1        0.0274
     48 H           2.2287   -0.8030    0.0000 H       1  UNL1        0.0274
     49 H           2.8414   -1.4301    0.0000 H       1  UNL1        0.0274
     50 H           3.4686   -0.8173    0.0000 H       1  UNL1        0.0274
     51 H           1.4667    1.0160    0.0000 H       1  UNL1        0.0274
     52 H           1.6838    0.1665    0.0000 H       1  UNL1        0.0274
     53 H           6.9594   -4.3280    0.0000 H       1  UNL1        0.2921
@<TRIPOS>BOND
     1     1    10   ar
     2     1    12   ar
     3     2     8    1
     4     2    14    1
     5     3     9    1
     6     3    20    1
     7     4    15    2
     8     5    19    1
     9     5    46    1
    10     6    29    1
    11     6    53    1
    12     7     9    1
    13     7    12   ar
    14     7    15   ar
    15     8    17    1
    16     8    22    1
    17     8    23    1
    18     9    24    1
    19     9    32    1
    20    10    11   ar
    21    10    13   ar
    22    11    14   ar
    23    11    18    1
    24    12    16    1
    25    13    15   ar
    26    13    19   ar
    27    14    21   ar
    28    16    20   ar
    29    16    25   ar
    30    17    18    2
    31    17    33    1
    32    18    34    1
    33    19    21   ar
    34    20    26   ar
    35    21    35    1
    36    22    39    1
    37    22    40    1
    38    22    41    1
    39    23    36    1
    40    23    37    1
    41    23    38    1
    42    24    27    2
    43    24    42    1
    44    25    28   ar
    45    25    43    1
    46    26    29   ar
    47    26    44    1
    48    27    30    1
    49    27    31    1
    50    28    29   ar
    51    28    45    1
    52    30    47    1
    53    30    51    1
    54    30    52    1
    55    31    48    1
    56    31    49    1
    57    31    50    1
