@<TRIPOS>MOLECULE
IMPHY001003
 100 105 0 0 0
SMALL
GASTEIGER

@<TRIPOS>ATOM
      1 O           9.8662    2.6072    0.0000 O.3     1  UNL1       -0.4641
      2 O           7.4128   -6.4560    0.0000 O.3     1  UNL1       -0.4641
      3 O           9.9594    0.8276    0.0000 O.2     1  UNL1       -0.2505
      4 O           8.9073   -5.4855    0.0000 O.2     1  UNL1       -0.2505
      5 O          11.2558   -2.6326    0.0000 O.3     1  UNL1       -0.4487
      6 O          13.1579   -2.0146    0.0000 O.3     1  UNL1       -0.4914
      7 O           9.7695   -1.2944    0.0000 O.3     1  UNL1       -0.4914
      8 O          10.5828    6.4436    0.0000 O.3     1  UNL1       -0.4913
      9 O          14.0469    6.4436    0.0000 O.3     1  UNL1       -0.4913
     10 O           2.0000   -4.7536    0.0000 O.3     1  UNL1       -0.4914
     11 O           2.0000   -6.7536    0.0000 O.3     1  UNL1       -0.4915
     12 O          12.3149    7.4436    0.0000 O.3     1  UNL1       -0.5009
     13 C          11.4488    2.9436    0.0000 C.3     1  UNL1        0.0105
     14 C           6.3301   -5.2536    0.0000 C.3     1  UNL1        0.0105
     15 C          11.3443    1.9491    0.0000 C.3     1  UNL1        0.0666
     16 C           7.2437   -4.8469    0.0000 C.3     1  UNL1        0.0666
     17 C          10.5353    3.3503    0.0000 C.3     1  UNL1        0.0963
     18 C          12.3149    3.4436    0.0000 C.3     1  UNL1       -0.0208
     19 C           6.4347   -6.2481    0.0000 C.3     1  UNL1        0.0963
     20 C           5.4641   -4.7536    0.0000 C.3     1  UNL1       -0.0209
     21 C          12.0875    1.2800    0.0000 C.3     1  UNL1       -0.0143
     22 C           7.4516   -3.8687    0.0000 C.3     1  UNL1       -0.0143
     23 C          10.3662    1.7412    0.0000 C.2     1  UNL1        0.3109
     24 C           7.9128   -5.5900    0.0000 C.2     1  UNL1        0.3109
     25 C          12.3149    4.4436    0.0000 C.ar    1  UNL1       -0.0398
     26 C          11.8795    0.3018    0.0000 C.ar    1  UNL1       -0.0429
     27 C           4.5981   -5.2536    0.0000 C.ar    1  UNL1       -0.0433
     28 C           8.4026   -3.5597    0.0000 C.ar    1  UNL1       -0.0429
     29 C          12.6227   -0.3673    0.0000 C.ar    1  UNL1       -0.0131
     30 C          13.1809    4.9436    0.0000 C.ar    1  UNL1       -0.0129
     31 C          11.4488    4.9436    0.0000 C.ar    1  UNL1       -0.0129
     32 C          10.9285   -0.0072    0.0000 C.ar    1  UNL1       -0.0548
     33 C           8.6106   -2.5816    0.0000 C.ar    1  UNL1       -0.0131
     34 C           9.1458   -4.2288    0.0000 C.ar    1  UNL1       -0.0548
     35 C           3.7320   -4.7536    0.0000 C.ar    1  UNL1       -0.0131
     36 C           4.5981   -6.2536    0.0000 C.ar    1  UNL1       -0.0549
     37 C          12.4148   -1.3455    0.0000 C.ar    1  UNL1        0.1624
     38 C           9.5616   -2.2725    0.0000 C.ar    1  UNL1        0.1624
     39 C          11.4637   -1.6545    0.0000 C.ar    1  UNL1        0.1700
     40 C          10.7206   -0.9854    0.0000 C.ar    1  UNL1       -0.0154
     41 C          10.3048   -2.9417    0.0000 C.ar    1  UNL1        0.1700
     42 C          10.0968   -3.9198    0.0000 C.ar    1  UNL1       -0.0154
     43 C          11.4488    5.9436    0.0000 C.ar    1  UNL1        0.1652
     44 C          13.1809    5.9436    0.0000 C.ar    1  UNL1        0.1652
     45 C           2.8660   -5.2536    0.0000 C.ar    1  UNL1        0.1617
     46 C           3.7320   -6.7536    0.0000 C.ar    1  UNL1       -0.0160
     47 C          12.3149    6.4436    0.0000 C.ar    1  UNL1        0.2010
     48 C           2.8660   -6.2536    0.0000 C.ar    1  UNL1        0.1615
     49 C          14.1090   -1.7056    0.0000 C.3     1  UNL1        0.0790
     50 C           9.0264   -0.6253    0.0000 C.3     1  UNL1        0.0790
     51 C           9.7168    5.9436    0.0000 C.3     1  UNL1        0.0790
     52 C          14.9129    5.9436    0.0000 C.3     1  UNL1        0.0790
     53 C           2.0000   -3.7536    0.0000 C.3     1  UNL1        0.0790
     54 C           2.0000   -7.7536    0.0000 C.3     1  UNL1        0.0790
     55 H          11.9688    2.6059    0.0000 H       1  UNL1        0.0345
     56 H           5.8102   -5.5913    0.0000 H       1  UNL1        0.0345
     57 H          11.1838    1.3502    0.0000 H       1  UNL1        0.0420
     58 H           6.7618   -4.4567    0.0000 H       1  UNL1        0.0420
     59 H          10.8453    3.8873    0.0000 H       1  UNL1        0.0700
     60 H          10.0337    3.7148    0.0000 H       1  UNL1        0.0700
     61 H          12.5269    2.8610    0.0000 H       1  UNL1        0.0317
     62 H          12.9254    3.5513    0.0000 H       1  UNL1        0.0317
     63 H           5.8147   -6.2481    0.0000 H       1  UNL1        0.0700
     64 H           6.3698   -6.8647    0.0000 H       1  UNL1        0.0700
     65 H           5.8626   -4.2786    0.0000 H       1  UNL1        0.0317
     66 H           5.0656   -4.2786    0.0000 H       1  UNL1        0.0317
     67 H          12.6623    1.0477    0.0000 H       1  UNL1        0.0321
     68 H          12.4160    1.8057    0.0000 H       1  UNL1        0.0321
     69 H           7.3653   -3.2548    0.0000 H       1  UNL1        0.0321
     70 H           6.8320   -3.8471    0.0000 H       1  UNL1        0.0321
     71 H          13.2123   -0.1757    0.0000 H       1  UNL1        0.0658
     72 H          13.7178    4.6336    0.0000 H       1  UNL1        0.0658
     73 H          10.9119    4.6336    0.0000 H       1  UNL1        0.0658
     74 H          10.4677    0.4076    0.0000 H       1  UNL1        0.0621
     75 H           8.1498   -2.1667    0.0000 H       1  UNL1        0.0658
     76 H           9.0169   -4.8353    0.0000 H       1  UNL1        0.0621
     77 H           3.7320   -4.1336    0.0000 H       1  UNL1        0.0658
     78 H           5.1350   -6.5636    0.0000 H       1  UNL1        0.0621
     79 H          10.1309   -1.1770    0.0000 H       1  UNL1        0.0655
     80 H          10.5576   -4.3347    0.0000 H       1  UNL1        0.0655
     81 H           3.7320   -7.3736    0.0000 H       1  UNL1        0.0655
     82 H          12.8518    7.7536    0.0000 H       1  UNL1        0.2924
     83 H          14.3006   -2.2952    0.0000 H       1  UNL1        0.0660
     84 H          14.6986   -1.5140    0.0000 H       1  UNL1        0.0660
     85 H          13.9174   -1.1159    0.0000 H       1  UNL1        0.0660
     86 H           9.4412   -0.1645    0.0000 H       1  UNL1        0.0660
     87 H           8.5656   -0.2104    0.0000 H       1  UNL1        0.0660
     88 H           8.6115   -1.0860    0.0000 H       1  UNL1        0.0660
     89 H           9.4068    6.4805    0.0000 H       1  UNL1        0.0660
     90 H           9.1798    5.6336    0.0000 H       1  UNL1        0.0660
     91 H          10.0268    5.4067    0.0000 H       1  UNL1        0.0660
     92 H          14.6029    5.4067    0.0000 H       1  UNL1        0.0660
     93 H          15.4499    5.6336    0.0000 H       1  UNL1        0.0660
     94 H          15.2229    6.4805    0.0000 H       1  UNL1        0.0660
     95 H           2.6200   -3.7536    0.0000 H       1  UNL1        0.0660
     96 H           2.0000   -3.1336    0.0000 H       1  UNL1        0.0660
     97 H           1.3800   -3.7536    0.0000 H       1  UNL1        0.0660
     98 H           1.3800   -7.7536    0.0000 H       1  UNL1        0.0660
     99 H           2.0000   -8.3736    0.0000 H       1  UNL1        0.0660
    100 H           2.6200   -7.7536    0.0000 H       1  UNL1        0.0660
@<TRIPOS>BOND
     1     1    17    1
     2     1    23    1
     3     2    19    1
     4     2    24    1
     5     3    23    2
     6     4    24    2
     7     5    39    1
     8     5    41    1
     9     6    37    1
    10     6    49    1
    11     7    38    1
    12     7    50    1
    13     8    43    1
    14     8    51    1
    15     9    44    1
    16     9    52    1
    17    10    45    1
    18    10    53    1
    19    11    48    1
    20    11    54    1
    21    12    47    1
    22    12    82    1
    23    13    15    1
    24    13    17    1
    25    13    18    1
    26    13    55    1
    27    14    16    1
    28    14    19    1
    29    14    20    1
    30    14    56    1
    31    15    21    1
    32    15    23    1
    33    15    57    1
    34    16    22    1
    35    16    24    1
    36    16    58    1
    37    17    59    1
    38    17    60    1
    39    18    25    1
    40    18    61    1
    41    18    62    1
    42    19    63    1
    43    19    64    1
    44    20    27    1
    45    20    65    1
    46    20    66    1
    47    21    26    1
    48    21    67    1
    49    21    68    1
    50    22    28    1
    51    22    69    1
    52    22    70    1
    53    25    30   ar
    54    25    31   ar
    55    26    29   ar
    56    26    32   ar
    57    27    35   ar
    58    27    36   ar
    59    28    33   ar
    60    28    34   ar
    61    29    37   ar
    62    29    71    1
    63    30    44   ar
    64    30    72    1
    65    31    43   ar
    66    31    73    1
    67    32    40   ar
    68    32    74    1
    69    33    38   ar
    70    33    75    1
    71    34    42   ar
    72    34    76    1
    73    35    45   ar
    74    35    77    1
    75    36    46   ar
    76    36    78    1
    77    37    39   ar
    78    38    41   ar
    79    39    40   ar
    80    40    79    1
    81    41    42   ar
    82    42    80    1
    83    43    47   ar
    84    44    47   ar
    85    45    48   ar
    86    46    48   ar
    87    46    81    1
    88    49    83    1
    89    49    84    1
    90    49    85    1
    91    50    86    1
    92    50    87    1
    93    50    88    1
    94    51    89    1
    95    51    90    1
    96    51    91    1
    97    52    92    1
    98    52    93    1
    99    52    94    1
   100    53    95    1
   101    53    96    1
   102    53    97    1
   103    54    98    1
   104    54    99    1
   105    54   100    1
