@<TRIPOS>MOLECULE
IMPHY013282
 56 57 0 0 0
SMALL
GASTEIGER

@<TRIPOS>ATOM
      1 O           4.5758    1.9713    0.0000 O.3     1  UNL1       -0.4568
      2 O           7.9280   -0.7334    0.0000 O.2     1  UNL1       -0.2962
      3 O           2.0000   -0.1332    0.0000 O.2     1  UNL1       -0.2968
      4 O           5.5216    3.4223    0.0000 O.2     1  UNL1       -0.2511
      5 C           6.3418    1.7806    0.0000 C.3     1  UNL1       -0.0018
      6 C           6.4289    0.1735    0.0000 C.3     1  UNL1        0.0429
      7 C           6.9681    1.0086    0.0000 C.3     1  UNL1       -0.0334
      8 C           5.4135    1.4252    0.0000 C.3     1  UNL1        0.1274
      9 C           5.4629    0.4324    0.0000 C.2     1  UNL1       -0.0224
     10 C           6.9289   -0.6925    0.0000 C.2     1  UNL1        0.1470
     11 C           6.6007    2.7466    0.0000 C.3     1  UNL1       -0.0587
     12 C           4.5969   -0.0676    0.0000 C.2     1  UNL1       -0.0707
     13 C           6.3880   -1.5159    0.0000 C.3     1  UNL1        0.0333
     14 C           3.6310    0.1912    0.0000 C.3     1  UNL1        0.0331
     15 C           2.9239   -0.5159    0.0000 C.2     1  UNL1        0.1407
     16 C           5.5220   -2.0159    0.0000 C.2     1  UNL1       -0.0774
     17 C           2.9239   -1.5159    0.0000 C.3     1  UNL1        0.0163
     18 C           3.7899   -2.0159    0.0000 C.3     1  UNL1        0.0043
     19 C           7.0969   -2.2212    0.0000 C.3     1  UNL1       -0.0522
     20 C           3.3722    1.1571    0.0000 C.3     1  UNL1       -0.0522
     21 C           4.6559   -1.5159    0.0000 C.2     1  UNL1       -0.0798
     22 C           4.6298    2.9698    0.0000 C.2     1  UNL1        0.3045
     23 C           3.7899   -3.0159    0.0000 C.2     1  UNL1       -0.0725
     24 C           3.7921    3.5159    0.0000 C.3     1  UNL1        0.0333
     25 C           2.9239   -3.5159    0.0000 C.3     1  UNL1       -0.0435
     26 C           4.6559   -3.5159    0.0000 C.2     1  UNL1       -0.0991
     27 H           5.8813    2.1957    0.0000 H       1  UNL1        0.0337
     28 H           7.2786    0.1524    0.0000 H       1  UNL1        0.0424
     29 H           7.4507    0.6194    0.0000 H       1  UNL1        0.0279
     30 H           7.4059    1.4477    0.0000 H       1  UNL1        0.0279
     31 H           4.8759    1.1164    0.0000 H       1  UNL1        0.0785
     32 H           7.1995    2.5861    0.0000 H       1  UNL1        0.0234
     33 H           6.7611    3.3454    0.0000 H       1  UNL1        0.0234
     34 H           6.0018    2.9070    0.0000 H       1  UNL1        0.0234
     35 H           5.1198   -0.4008    0.0000 H       1  UNL1        0.0580
     36 H           6.3079   -2.1307    0.0000 H       1  UNL1        0.0417
     37 H           3.0321    0.3516    0.0000 H       1  UNL1        0.0417
     38 H           5.5220   -2.6359    0.0000 H       1  UNL1        0.0576
     39 H           2.3133   -1.4083    0.0000 H       1  UNL1        0.0351
     40 H           2.7118   -2.0985    0.0000 H       1  UNL1        0.0351
     41 H           3.2530   -2.3259    0.0000 H       1  UNL1        0.0392
     42 H           6.6597   -2.6607    0.0000 H       1  UNL1        0.0239
     43 H           7.5365   -2.6584    0.0000 H       1  UNL1        0.0239
     44 H           7.5342   -1.7816    0.0000 H       1  UNL1        0.0239
     45 H           3.9710    1.3176    0.0000 H       1  UNL1        0.0239
     46 H           3.2117    1.7560    0.0000 H       1  UNL1        0.0239
     47 H           2.7733    0.9966    0.0000 H       1  UNL1        0.0239
     48 H           5.0545   -1.0410    0.0000 H       1  UNL1        0.0575
     49 H           4.1307    4.0353    0.0000 H       1  UNL1        0.0342
     50 H           3.2727    3.8545    0.0000 H       1  UNL1        0.0342
     51 H           3.4535    2.9965    0.0000 H       1  UNL1        0.0342
     52 H           2.6139   -2.9790    0.0000 H       1  UNL1        0.0274
     53 H           2.3869   -3.8259    0.0000 H       1  UNL1        0.0274
     54 H           3.2339   -4.0529    0.0000 H       1  UNL1        0.0274
     55 H           4.6559   -4.1359    0.0000 H       1  UNL1        0.0534
     56 H           5.1929   -3.2059    0.0000 H       1  UNL1        0.0534
@<TRIPOS>BOND
     1     8     1    1
     2     1    22    1
     3     2    10    2
     4     3    15    2
     5     4    22    2
     6     5     7    1
     7     5     8    1
     8     5    11    1
     9     5    27    1
    10     6     7    1
    11     6     9    1
    12     6    10    1
    13     6    28    1
    14     7    29    1
    15     7    30    1
    16     8     9    1
    17     8    31    1
    18     9    12    2
    19    10    13    1
    20    11    32    1
    21    11    33    1
    22    11    34    1
    23    12    14    1
    24    12    35    1
    25    13    16    1
    26    13    19    1
    27    13    36    1
    28    14    15    1
    29    14    20    1
    30    14    37    1
    31    15    17    1
    32    16    21    2
    33    16    38    1
    34    17    18    1
    35    17    39    1
    36    17    40    1
    37    18    21    1
    38    18    23    1
    39    18    41    1
    40    19    42    1
    41    19    43    1
    42    19    44    1
    43    20    45    1
    44    20    46    1
    45    20    47    1
    46    21    48    1
    47    22    24    1
    48    23    25    1
    49    23    26    2
    50    24    49    1
    51    24    50    1
    52    24    51    1
    53    25    52    1
    54    25    53    1
    55    25    54    1
    56    26    55    1
    57    26    56    1
