@<TRIPOS>MOLECULE
IMPHY014419
 75 78 0 0 0
SMALL
GASTEIGER

@<TRIPOS>ATOM
      1 O           6.8671   -1.5039    0.0000 O.3     1  UNL1       -0.3912
      2 O           6.0010   -1.2719    0.0000 O.3     1  UNL1       -0.3481
      3 O           4.2690   -1.2719    0.0000 O.3     1  UNL1       -0.3405
      4 O           6.0010   -3.2719    0.0000 O.3     1  UNL1       -0.3841
      5 O          12.9561    3.3073    0.0000 O.3     1  UNL1       -0.4572
      6 O           4.2690   -4.2719    0.0000 O.3     1  UNL1       -0.3864
      7 O           2.5369   -3.2719    0.0000 O.3     1  UNL1       -0.3865
      8 O          11.7107    4.5819    0.0000 O.2     1  UNL1       -0.2453
      9 O           2.5369   -0.2719    0.0000 O.3     1  UNL1       -0.3924
     10 C           8.3671    1.0942    0.0000 C.3     1  UNL1       -0.0220
     11 C           7.3671    1.0942    0.0000 C.3     1  UNL1       -0.0249
     12 C           6.8671    0.2281    0.0000 C.3     1  UNL1        0.0206
     13 C           8.9017    1.9881    0.0000 C.3     1  UNL1       -0.0142
     14 C           8.8671    0.2281    0.0000 C.3     1  UNL1       -0.0445
     15 C           7.3671   -0.6379    0.0000 C.3     1  UNL1        0.0630
     16 C           6.8324    1.9881    0.0000 C.3     1  UNL1       -0.0454
     17 C           8.3671   -0.6379    0.0000 C.3     1  UNL1       -0.0257
     18 C           9.3671    1.0942    0.0000 C.3     1  UNL1       -0.0587
     19 C           7.3462    2.8941    0.0000 C.3     1  UNL1       -0.0314
     20 C           8.3879    2.8941    0.0000 C.2     1  UNL1       -0.0730
     21 C           6.0010   -0.2719    0.0000 C.3     1  UNL1        0.0588
     22 C           6.0010    0.7281    0.0000 C.3     1  UNL1       -0.0548
     23 C           9.9017    1.9765    0.0000 C.3     1  UNL1       -0.0418
     24 C          10.4116    2.8367    0.0000 C.3     1  UNL1       -0.0206
     25 C           8.8912    3.7582    0.0000 C.2     1  UNL1       -0.0992
     26 C           5.1350   -1.7719    0.0000 C.3     1  UNL1        0.1879
     27 C          11.4116    2.8252    0.0000 C.2     1  UNL1        0.0359
     28 C           5.1350   -2.7719    0.0000 C.3     1  UNL1        0.1341
     29 C           4.2690   -3.2719    0.0000 C.3     1  UNL1        0.1141
     30 C           3.4030   -1.7719    0.0000 C.3     1  UNL1        0.1130
     31 C           3.4030   -2.7719    0.0000 C.3     1  UNL1        0.1119
     32 C          11.9900    2.0094    0.0000 C.2     1  UNL1       -0.0371
     33 C          12.0087    3.6273    0.0000 C.2     1  UNL1        0.3352
     34 C          12.9445    2.3074    0.0000 C.3     1  UNL1        0.1118
     35 C           2.5369   -1.2719    0.0000 C.3     1  UNL1        0.0730
     36 H           6.5171    1.0876    0.0000 H       1  UNL1        0.0313
     37 H           9.2169    2.5220    0.0000 H       1  UNL1        0.0351
     38 H           9.3420   -0.1704    0.0000 H       1  UNL1        0.0272
     39 H           9.3420    0.6266    0.0000 H       1  UNL1        0.0272
     40 H           6.7471   -0.6379    0.0000 H       1  UNL1        0.0599
     41 H           6.3534    2.3817    0.0000 H       1  UNL1        0.0271
     42 H           6.3626    1.5835    0.0000 H       1  UNL1        0.0271
     43 H           8.2594   -1.2485    0.0000 H       1  UNL1        0.0290
     44 H           8.9497   -0.8500    0.0000 H       1  UNL1        0.0290
     45 H           9.3671    0.4741    0.0000 H       1  UNL1        0.0235
     46 H           9.9871    1.0942    0.0000 H       1  UNL1        0.0235
     47 H           9.3671    1.7142    0.0000 H       1  UNL1        0.0235
     48 H           7.4523    3.5050    0.0000 H       1  UNL1        0.0310
     49 H           6.7626    3.1032    0.0000 H       1  UNL1        0.0310
     50 H           5.7890    0.3107    0.0000 H       1  UNL1        0.0567
     51 H           5.3905   -0.3795    0.0000 H       1  UNL1        0.0567
     52 H           6.3110    1.2651    0.0000 H       1  UNL1        0.0237
     53 H           5.4641    1.0381    0.0000 H       1  UNL1        0.0237
     54 H           5.6910    0.1912    0.0000 H       1  UNL1        0.0237
     55 H           9.7869    1.3672    0.0000 H       1  UNL1        0.0274
     56 H          10.4818    1.7578    0.0000 H       1  UNL1        0.0274
     57 H           7.1771   -2.0409    0.0000 H       1  UNL1        0.2098
     58 H          10.5264    3.4460    0.0000 H       1  UNL1        0.0315
     59 H           9.8315    3.0555    0.0000 H       1  UNL1        0.0315
     60 H           9.5112    3.7559    0.0000 H       1  UNL1        0.0534
     61 H           8.5833    4.2964    0.0000 H       1  UNL1        0.0534
     62 H           5.1350   -1.1519    0.0000 H       1  UNL1        0.0937
     63 H           5.1350   -3.3919    0.0000 H       1  UNL1        0.0671
     64 H           3.7320   -3.5819    0.0000 H       1  UNL1        0.0648
     65 H           3.4030   -1.1519    0.0000 H       1  UNL1        0.0647
     66 H           3.4030   -3.3919    0.0000 H       1  UNL1        0.0647
     67 H          11.7916    1.4220    0.0000 H       1  UNL1        0.0610
     68 H          13.0664    1.6995    0.0000 H       1  UNL1        0.0743
     69 H          13.5618    2.3651    0.0000 H       1  UNL1        0.0743
     70 H           6.5380   -2.9619    0.0000 H       1  UNL1        0.2101
     71 H           1.9264   -1.1642    0.0000 H       1  UNL1        0.0584
     72 H           2.3249   -1.8545    0.0000 H       1  UNL1        0.0584
     73 H           3.7320   -4.5819    0.0000 H       1  UNL1        0.2100
     74 H           2.0000   -2.9619    0.0000 H       1  UNL1        0.2100
     75 H           2.0000    0.0381    0.0000 H       1  UNL1        0.2095
@<TRIPOS>BOND
     1    15     1    1
     2     1    57    1
     3     2    21    1
     4    26     2    1
     5     3    26    1
     6     3    30    1
     7    28     4    1
     8     4    70    1
     9     5    33    1
    10     5    34    1
    11    29     6    1
    12     6    73    1
    13    31     7    1
    14     7    74    1
    15     8    33    2
    16     9    35    1
    17     9    75    1
    18    10    11    1
    19    10    13    1
    20    10    14    1
    21    10    18    1
    22    11    12    1
    23    11    16    1
    24    11    36    1
    25    12    15    1
    26    12    21    1
    27    12    22    1
    28    13    20    1
    29    13    23    1
    30    13    37    1
    31    14    17    1
    32    14    38    1
    33    14    39    1
    34    15    17    1
    35    15    40    1
    36    16    19    1
    37    16    41    1
    38    16    42    1
    39    17    43    1
    40    17    44    1
    41    18    45    1
    42    18    46    1
    43    18    47    1
    44    19    20    1
    45    19    48    1
    46    19    49    1
    47    20    25    2
    48    21    50    1
    49    21    51    1
    50    22    52    1
    51    22    53    1
    52    22    54    1
    53    23    24    1
    54    23    55    1
    55    23    56    1
    56    24    27    1
    57    24    58    1
    58    24    59    1
    59    25    60    1
    60    25    61    1
    61    26    28    1
    62    26    62    1
    63    27    32    2
    64    27    33    1
    65    28    29    1
    66    28    63    1
    67    29    31    1
    68    29    64    1
    69    30    31    1
    70    30    35    1
    71    30    65    1
    72    31    66    1
    73    32    34    1
    74    32    67    1
    75    34    68    1
    76    34    69    1
    77    35    71    1
    78    35    72    1
