@<TRIPOS>MOLECULE
IMPHY002561
 54 57 0 0 0
SMALL
GASTEIGER

@<TRIPOS>ATOM
      1 O           3.7230   -2.8763    0.0000 O.3     1  UNL1       -0.4598
      2 O           4.5447    0.2891    0.0000 O.3     1  UNL1       -0.4604
      3 O           2.0000   -2.4441    0.0000 O.2     1  UNL1       -0.2505
      4 O           8.0559   -2.9564    0.0000 O.2     1  UNL1       -0.2876
      5 O           5.1318   -5.4506    0.0000 O.3     1  UNL1       -0.3907
      6 O           6.1053    1.0406    0.0000 O.2     1  UNL1       -0.2505
      7 O           6.9275    5.3213    0.0000 O.3     1  UNL1       -0.5068
      8 C           4.3551   -1.3937    0.0000 C.3     1  UNL1        0.0470
      9 C           4.5777   -2.3686    0.0000 C.3     1  UNL1        0.1206
     10 C           5.4786   -2.8025    0.0000 C.3     1  UNL1        0.0487
     11 C           4.9786   -0.6119    0.0000 C.3     1  UNL1        0.1137
     12 C           3.3648   -1.3072    0.0000 C.3     1  UNL1        0.0632
     13 C           6.3796   -2.3686    0.0000 C.2     1  UNL1        0.0090
     14 C           5.9786   -0.6119    0.0000 C.3     1  UNL1        0.0064
     15 C           6.6021   -1.3937    0.0000 C.2     1  UNL1       -0.0616
     16 C           5.6146   -3.7872    0.0000 C.2     1  UNL1       -0.0298
     17 C           2.9749   -2.2216    0.0000 C.2     1  UNL1        0.3107
     18 C           2.8504   -0.4496    0.0000 C.3     1  UNL1       -0.0518
     19 C           7.0647   -3.0889    0.0000 C.2     1  UNL1        0.1828
     20 C           6.5929   -3.9639    0.0000 C.2     1  UNL1       -0.0126
     21 C           4.8930   -4.4796    0.0000 C.3     1  UNL1        0.0664
     22 C           7.5770   -1.1712    0.0000 C.3     1  UNL1       -0.0430
     23 C           5.1081    1.1153    0.0000 C.2     1  UNL1        0.3117
     24 C           4.6742    2.0163    0.0000 C.3     1  UNL1        0.0701
     25 C           5.2375    2.8426    0.0000 C.ar    1  UNL1       -0.0365
     26 C           4.8036    3.7435    0.0000 C.ar    1  UNL1       -0.0546
     27 C           6.2347    2.7678    0.0000 C.ar    1  UNL1       -0.0546
     28 C           5.3669    4.5698    0.0000 C.ar    1  UNL1       -0.0199
     29 C           6.7980    3.5941    0.0000 C.ar    1  UNL1       -0.0199
     30 C           6.3641    4.4950    0.0000 C.ar    1  UNL1        0.1169
     31 H           5.1838   -1.5828    0.0000 H       1  UNL1        0.0381
     32 H           4.6147   -3.2178    0.0000 H       1  UNL1        0.0747
     33 H           4.7916   -3.3030    0.0000 H       1  UNL1        0.0432
     34 H           4.3625   -0.5424    0.0000 H       1  UNL1        0.0741
     35 H           3.6936   -0.7815    0.0000 H       1  UNL1        0.0416
     36 H           6.5372   -0.3429    0.0000 H       1  UNL1        0.0346
     37 H           5.8407   -0.0074    0.0000 H       1  UNL1        0.0346
     38 H           3.3821   -0.1307    0.0000 H       1  UNL1        0.0238
     39 H           2.5315    0.0821    0.0000 H       1  UNL1        0.0238
     40 H           2.3188   -0.7685    0.0000 H       1  UNL1        0.0238
     41 H           6.8619   -4.5225    0.0000 H       1  UNL1        0.0656
     42 H           4.5480   -3.9644    0.0000 H       1  UNL1        0.0604
     43 H           4.3258   -4.7299    0.0000 H       1  UNL1        0.0604
     44 H           7.7150   -1.7756    0.0000 H       1  UNL1        0.0275
     45 H           8.1815   -1.0332    0.0000 H       1  UNL1        0.0275
     46 H           7.4391   -0.5667    0.0000 H       1  UNL1        0.0275
     47 H           4.6844   -5.8799    0.0000 H       1  UNL1        0.2098
     48 H           4.2303    2.4492    0.0000 H       1  UNL1        0.0426
     49 H           4.1708    1.6544    0.0000 H       1  UNL1        0.0426
     50 H           4.1854    3.7898    0.0000 H       1  UNL1        0.0622
     51 H           6.5037    2.2092    0.0000 H       1  UNL1        0.0622
     52 H           5.0979    5.1284    0.0000 H       1  UNL1        0.0654
     53 H           7.4163    3.5477    0.0000 H       1  UNL1        0.0654
     54 H           6.6584    5.8799    0.0000 H       1  UNL1        0.2921
@<TRIPOS>BOND
     1     1     9    1
     2     1    17    1
     3    11     2    1
     4     2    23    1
     5     3    17    2
     6     4    19    2
     7     5    21    1
     8     5    47    1
     9     6    23    2
    10     7    30    1
    11     7    54    1
    12     8     9    1
    13     8    11    1
    14     8    12    1
    15     8    31    1
    16     9    10    1
    17     9    32    1
    18    10    13    1
    19    10    16    1
    20    10    33    1
    21    11    14    1
    22    11    34    1
    23    12    17    1
    24    12    18    1
    25    12    35    1
    26    13    15    2
    27    13    19    1
    28    14    15    1
    29    14    36    1
    30    14    37    1
    31    15    22    1
    32    16    20    2
    33    16    21    1
    34    18    38    1
    35    18    39    1
    36    18    40    1
    37    19    20    1
    38    20    41    1
    39    21    42    1
    40    21    43    1
    41    22    44    1
    42    22    45    1
    43    22    46    1
    44    23    24    1
    45    24    25    1
    46    24    48    1
    47    24    49    1
    48    25    26   ar
    49    25    27   ar
    50    26    28   ar
    51    26    50    1
    52    27    29   ar
    53    27    51    1
    54    28    30   ar
    55    28    52    1
    56    29    30   ar
    57    29    53    1
