@<TRIPOS>MOLECULE
IMPHY006435
 32 33 0 0 0
SMALL
GASTEIGER

@<TRIPOS>ATOM
      1 O           5.1350   -2.2500    0.0000 O.2     1  UNL1       -0.4268
      2 O           2.5369   -0.7500    0.0000 O.3     1  UNL1       -0.5057
      3 O           4.2690    2.2500    0.0000 O.2     1  UNL1       -0.5061
      4 O           3.4030    0.7500    0.0000 O.2     1  UNL1       -0.2868
      5 O           6.0010   -0.7500    0.0000 O.2     1  UNL1       -0.2443
      6 C           4.2690   -0.7500    0.0000 C.ar    1  UNL1        0.1473
      7 C           3.4030   -1.2500    0.0000 C.ar    1  UNL1        0.1377
      8 C           4.2690   -2.7500    0.0000 C.ar    1  UNL1        0.1096
      9 C           4.2690    0.2500    0.0000 C.2     1  UNL1        0.2000
     10 C           6.0010    2.2500    0.0000 C.ar    1  UNL1        0.0165
     11 C           3.4030   -2.2500    0.0000 C.ar    1  UNL1        0.0187
     12 C           5.1350    1.7500    0.0000 C.2     1  UNL1        0.1276
     13 C           5.1350   -1.2500    0.0000 C.ar    1  UNL1        0.3515
     14 C           5.1350    0.7500    0.0000 C.2     1  UNL1        0.0281
     15 C           6.8671    1.7500    0.0000 C.ar    1  UNL1       -0.0511
     16 C           6.0010    3.2500    0.0000 C.ar    1  UNL1       -0.0511
     17 C           4.2690   -3.7500    0.0000 C.3     1  UNL1       -0.0061
     18 C           7.7331    2.2500    0.0000 C.ar    1  UNL1       -0.0611
     19 C           6.8671    3.7500    0.0000 C.ar    1  UNL1       -0.0611
     20 C           7.7331    3.2500    0.0000 C.ar    1  UNL1       -0.0617
     21 H           2.8660   -2.5600    0.0000 H       1  UNL1        0.0688
     22 H           5.6720    0.4400    0.0000 H       1  UNL1        0.0693
     23 H           6.8671    1.1300    0.0000 H       1  UNL1        0.0625
     24 H           5.4641    3.5600    0.0000 H       1  UNL1        0.0625
     25 H           3.6490   -3.7500    0.0000 H       1  UNL1        0.0308
     26 H           4.2690   -4.3700    0.0000 H       1  UNL1        0.0308
     27 H           4.8890   -3.7500    0.0000 H       1  UNL1        0.0308
     28 H           8.2700    1.9400    0.0000 H       1  UNL1        0.0618
     29 H           6.8671    4.3700    0.0000 H       1  UNL1        0.0618
     30 H           8.2700    3.5600    0.0000 H       1  UNL1        0.0618
     31 H           2.0000   -1.0600    0.0000 H       1  UNL1        0.2922
     32 H           4.2690    2.8700    0.0000 H       1  UNL1        0.2922
@<TRIPOS>BOND
     1     1     8   ar
     2     1    13   ar
     3     2     7    1
     4     2    31    1
     5     3    12    1
     6     3    32    1
     7     4     9    2
     8     5    13    2
     9     6     7   ar
    10     6     9    1
    11     6    13   ar
    12     7    11   ar
    13     8    11   ar
    14     8    17    1
    15     9    14    1
    16    10    12    1
    17    10    15   ar
    18    10    16   ar
    19    11    21    1
    20    12    14    2
    21    14    22    1
    22    15    18   ar
    23    15    23    1
    24    16    19   ar
    25    16    24    1
    26    17    25    1
    27    17    26    1
    28    17    27    1
    29    18    20   ar
    30    18    28    1
    31    19    20   ar
    32    19    29    1
    33    20    30    1
