@<TRIPOS>MOLECULE
IMPHY002240
 85 88 0 0 0
SMALL
GASTEIGER

@<TRIPOS>ATOM
      1 O           6.1153    0.5208    0.0000 O.3     1  UNL1       -0.4802
      2 O           6.0328    1.5174    0.0000 O.2     1  UNL1       -0.2504
      3 O           5.3194    6.2702    0.0000 O.3     1  UNL1       -0.3909
      4 O           4.3932   -4.7681    0.0000 O.3     1  UNL1       -0.3890
      5 O           2.1926   -6.2368    0.0000 O.3     1  UNL1       -0.3866
      6 C           3.5330   -0.2154    0.0000 C.3     1  UNL1       -0.0130
      7 C           4.3891    0.3780    0.0000 C.3     1  UNL1        0.0763
      8 C           4.2953    1.4154    0.0000 C.3     1  UNL1       -0.0214
      9 C           3.8336   -1.2062    0.0000 C.3     1  UNL1       -0.0320
     10 C           5.2115   -0.2512    0.0000 C.3     1  UNL1       -0.0362
     11 C           3.3943    1.8493    0.0000 C.3     1  UNL1       -0.0335
     12 C           2.5945    0.2366    0.0000 C.3     1  UNL1       -0.0461
     13 C           4.8688   -1.2283    0.0000 C.3     1  UNL1       -0.0484
     14 C           2.5247    1.2759    0.0000 C.3     1  UNL1       -0.0491
     15 C           3.2294   -2.0030    0.0000 C.3     1  UNL1       -0.0404
     16 C           5.1962    1.8493    0.0000 C.3     1  UNL1       -0.0452
     17 C           2.7111   -0.7850    0.0000 C.3     1  UNL1       -0.0583
     18 C           3.1718    2.8242    0.0000 C.3     1  UNL1       -0.0283
     19 C           5.2110    0.9477    0.0000 C.2     1  UNL1        0.3117
     20 C           5.4188    2.8242    0.0000 C.3     1  UNL1       -0.0306
     21 C           3.7953    3.6061    0.0000 C.2     1  UNL1       -0.0693
     22 C           4.7953    3.6061    0.0000 C.2     1  UNL1       -0.0622
     23 C           3.6173   -2.9247    0.0000 C.3     1  UNL1       -0.0478
     24 C           2.2372   -1.8782    0.0000 C.3     1  UNL1       -0.0621
     25 C           5.3299    4.5000    0.0000 C.3     1  UNL1        0.0123
     26 C           3.2606    4.5000    0.0000 C.3     1  UNL1       -0.0291
     27 C           4.8161    5.4061    0.0000 C.3     1  UNL1        0.0643
     28 C           3.0131   -3.7215    0.0000 C.3     1  UNL1       -0.0239
     29 C           3.7744    5.4061    0.0000 C.3     1  UNL1       -0.0224
     30 C           6.2017    4.9900    0.0000 C.3     1  UNL1       -0.0537
     31 C           6.1901    3.9900    0.0000 C.3     1  UNL1       -0.0537
     32 C           3.4010   -4.6432    0.0000 C.3     1  UNL1        0.0833
     33 C           2.7968   -5.4400    0.0000 C.3     1  UNL1        0.0862
     34 C           3.5936   -6.0443    0.0000 C.3     1  UNL1       -0.0339
     35 C           2.0000   -4.8358    0.0000 C.3     1  UNL1       -0.0339
     36 H           5.0346    0.9961    0.0000 H       1  UNL1        0.0314
     37 H           4.2036   -1.9715    0.0000 H       1  UNL1        0.0309
     38 H           5.7717   -0.5167    0.0000 H       1  UNL1        0.0276
     39 H           5.5344    0.2781    0.0000 H       1  UNL1        0.0276
     40 H           2.6055    2.1659    0.0000 H       1  UNL1        0.0307
     41 H           1.9779    0.3015    0.0000 H       1  UNL1        0.0271
     42 H           2.4251   -0.3598    0.0000 H       1  UNL1        0.0271
     43 H           4.7905   -1.8434    0.0000 H       1  UNL1        0.0268
     44 H           5.4722   -1.3708    0.0000 H       1  UNL1        0.0268
     45 H           2.2770    1.8442    0.0000 H       1  UNL1        0.0268
     46 H           1.9223    1.1291    0.0000 H       1  UNL1        0.0268
     47 H           2.8548   -2.4971    0.0000 H       1  UNL1        0.0301
     48 H           5.3342    1.2448    0.0000 H       1  UNL1        0.0271
     49 H           5.8162    1.8493    0.0000 H       1  UNL1        0.0271
     50 H           2.3580   -0.2755    0.0000 H       1  UNL1        0.0235
     51 H           2.2016   -1.1382    0.0000 H       1  UNL1        0.0235
     52 H           3.0643   -1.2946    0.0000 H       1  UNL1        0.0235
     53 H           2.7852    3.3090    0.0000 H       1  UNL1        0.0313
     54 H           2.6132    2.5552    0.0000 H       1  UNL1        0.0313
     55 H           5.9774    2.5552    0.0000 H       1  UNL1        0.0310
     56 H           5.8053    3.3090    0.0000 H       1  UNL1        0.0310
     57 H           4.0388   -3.3794    0.0000 H       1  UNL1        0.0269
     58 H           4.1383   -2.5886    0.0000 H       1  UNL1        0.0269
     59 H           2.3146   -1.2630    0.0000 H       1  UNL1        0.0233
     60 H           1.6221   -1.8008    0.0000 H       1  UNL1        0.0233
     61 H           2.1598   -2.4933    0.0000 H       1  UNL1        0.0233
     62 H           2.7816    4.8936    0.0000 H       1  UNL1        0.0311
     63 H           2.7908    4.0954    0.0000 H       1  UNL1        0.0311
     64 H           4.5071    5.9436    0.0000 H       1  UNL1        0.0602
     65 H           2.5916   -3.2668    0.0000 H       1  UNL1        0.0291
     66 H           2.4921   -4.0576    0.0000 H       1  UNL1        0.0291
     67 H           3.8805    6.0169    0.0000 H       1  UNL1        0.0293
     68 H           3.1908    5.6151    0.0000 H       1  UNL1        0.0293
     69 H           6.6248    0.8740    0.0000 H       1  UNL1        0.2951
     70 H           6.5054    4.4495    0.0000 H       1  UNL1        0.0239
     71 H           6.7422    5.2937    0.0000 H       1  UNL1        0.0239
     72 H           5.8979    5.5304    0.0000 H       1  UNL1        0.0239
     73 H           5.8739    3.4567    0.0000 H       1  UNL1        0.0239
     74 H           6.7234    3.6738    0.0000 H       1  UNL1        0.0239
     75 H           6.5063    4.5233    0.0000 H       1  UNL1        0.0239
     76 H           3.7757   -4.1492    0.0000 H       1  UNL1        0.0622
     77 H           5.0115    6.8083    0.0000 H       1  UNL1        0.2098
     78 H           4.6337   -5.3395    0.0000 H       1  UNL1        0.2099
     79 H           3.2190   -6.5383    0.0000 H       1  UNL1        0.0258
     80 H           2.3746   -4.3418    0.0000 H       1  UNL1        0.0258
     81 H           1.5060   -4.4612    0.0000 H       1  UNL1        0.0258
     82 H           1.6254   -5.3298    0.0000 H       1  UNL1        0.0258
     83 H           4.0876   -6.4189    0.0000 H       1  UNL1        0.0258
     84 H           3.9682   -5.5502    0.0000 H       1  UNL1        0.0258
     85 H           2.4331   -6.8083    0.0000 H       1  UNL1        0.2102
@<TRIPOS>BOND
     1     1    19    1
     2     1    69    1
     3     2    19    2
     4    27     3    1
     5     3    77    1
     6    32     4    1
     7     4    78    1
     8     5    33    1
     9     5    85    1
    10     6     7    1
    11     6     9    1
    12     6    12    1
    13     6    17    1
    14     7     8    1
    15     7    10    1
    16     7    19    1
    17     8    11    1
    18     8    16    1
    19     8    36    1
    20     9    13    1
    21     9    15    1
    22     9    37    1
    23    10    13    1
    24    10    38    1
    25    10    39    1
    26    11    14    1
    27    11    18    1
    28    11    40    1
    29    12    14    1
    30    12    41    1
    31    12    42    1
    32    13    43    1
    33    13    44    1
    34    14    45    1
    35    14    46    1
    36    15    23    1
    37    15    24    1
    38    15    47    1
    39    16    20    1
    40    16    48    1
    41    16    49    1
    42    17    50    1
    43    17    51    1
    44    17    52    1
    45    18    21    1
    46    18    53    1
    47    18    54    1
    48    20    22    1
    49    20    55    1
    50    20    56    1
    51    21    22    2
    52    21    26    1
    53    22    25    1
    54    23    28    1
    55    23    57    1
    56    23    58    1
    57    24    59    1
    58    24    60    1
    59    24    61    1
    60    25    27    1
    61    25    30    1
    62    25    31    1
    63    26    29    1
    64    26    62    1
    65    26    63    1
    66    27    29    1
    67    27    64    1
    68    28    32    1
    69    28    65    1
    70    28    66    1
    71    29    67    1
    72    29    68    1
    73    30    70    1
    74    30    71    1
    75    30    72    1
    76    31    73    1
    77    31    74    1
    78    31    75    1
    79    32    33    1
    80    32    76    1
    81    33    34    1
    82    33    35    1
    83    34    79    1
    84    34    83    1
    85    34    84    1
    86    35    80    1
    87    35    81    1
    88    35    82    1
