@<TRIPOS>MOLECULE
IMPHY007681
 114 113 0 0 0
SMALL
GASTEIGER

@<TRIPOS>ATOM
      1 O           2.8660   -1.0600    0.0000 O.2     1  UNL1       -0.2977
      2 C          17.5885    0.4400    0.0000 C.3     1  UNL1       -0.0286
      3 C          14.1244    0.4400    0.0000 C.3     1  UNL1       -0.0286
      4 C          18.4545   -0.0600    0.0000 C.3     1  UNL1       -0.0308
      5 C          21.0526    0.4400    0.0000 C.3     1  UNL1       -0.0286
      6 C          14.9904   -0.0600    0.0000 C.3     1  UNL1       -0.0308
      7 C          16.7224   -0.0600    0.0000 C.2     1  UNL1       -0.0762
      8 C          21.9186   -0.0600    0.0000 C.3     1  UNL1       -0.0308
      9 C          10.6603    0.4400    0.0000 C.3     1  UNL1       -0.0286
     10 C          11.5263   -0.0600    0.0000 C.3     1  UNL1       -0.0308
     11 C          20.1865   -0.0600    0.0000 C.2     1  UNL1       -0.0762
     12 C          13.2583   -0.0600    0.0000 C.2     1  UNL1       -0.0762
     13 C          24.5167    0.4400    0.0000 C.3     1  UNL1       -0.0286
     14 C          15.8564    0.4400    0.0000 C.2     1  UNL1       -0.0847
     15 C          19.3205    0.4400    0.0000 C.2     1  UNL1       -0.0847
     16 C          23.6506   -0.0600    0.0000 C.2     1  UNL1       -0.0762
     17 C           9.7942   -0.0600    0.0000 C.2     1  UNL1       -0.0762
     18 C          12.3923    0.4400    0.0000 C.2     1  UNL1       -0.0847
     19 C          25.3827   -0.0600    0.0000 C.3     1  UNL1       -0.0308
     20 C          22.7846    0.4400    0.0000 C.2     1  UNL1       -0.0847
     21 C           8.0622   -0.0600    0.0000 C.3     1  UNL1       -0.0308
     22 C           7.1962    0.4400    0.0000 C.3     1  UNL1       -0.0286
     23 C           8.9282    0.4400    0.0000 C.2     1  UNL1       -0.0847
     24 C          26.2487    0.4400    0.0000 C.2     1  UNL1       -0.0847
     25 C          27.1147   -0.0600    0.0000 C.2     1  UNL1       -0.0762
     26 C          16.7224   -1.0600    0.0000 C.3     1  UNL1       -0.0438
     27 C          20.1865   -1.0600    0.0000 C.3     1  UNL1       -0.0438
     28 C          13.2583   -1.0600    0.0000 C.3     1  UNL1       -0.0438
     29 C          27.9808    0.4400    0.0000 C.3     1  UNL1       -0.0286
     30 C           6.3301   -0.0600    0.0000 C.2     1  UNL1       -0.0762
     31 C          23.6506   -1.0600    0.0000 C.3     1  UNL1       -0.0438
     32 C           9.7942   -1.0600    0.0000 C.3     1  UNL1       -0.0438
     33 C          28.8468   -0.0600    0.0000 C.3     1  UNL1       -0.0308
     34 C           5.4641    0.4400    0.0000 C.2     1  UNL1       -0.0846
     35 C           4.5981   -0.0600    0.0000 C.3     1  UNL1       -0.0279
     36 C          27.1147   -1.0600    0.0000 C.3     1  UNL1       -0.0438
     37 C           6.3301   -1.0600    0.0000 C.3     1  UNL1       -0.0438
     38 C           3.7320    0.4400    0.0000 C.3     1  UNL1        0.0090
     39 C          29.7128    0.4400    0.0000 C.2     1  UNL1       -0.0850
     40 C          30.5788   -0.0600    0.0000 C.2     1  UNL1       -0.0796
     41 C           2.8660   -0.0600    0.0000 C.2     1  UNL1        0.1306
     42 C          31.4449    0.4400    0.0000 C.3     1  UNL1       -0.0440
     43 C          30.5788   -1.0600    0.0000 C.3     1  UNL1       -0.0440
     44 C           2.0000    0.4400    0.0000 C.3     1  UNL1       -0.0061
     45 H          17.9870    0.9149    0.0000 H       1  UNL1        0.0313
     46 H          17.1899    0.9149    0.0000 H       1  UNL1        0.0313
     47 H          14.5229    0.9149    0.0000 H       1  UNL1        0.0313
     48 H          13.7258    0.9149    0.0000 H       1  UNL1        0.0313
     49 H          21.4511    0.9149    0.0000 H       1  UNL1        0.0313
     50 H          20.6540    0.9149    0.0000 H       1  UNL1        0.0313
     51 H          18.0560   -0.5349    0.0000 H       1  UNL1        0.0310
     52 H          18.8530   -0.5349    0.0000 H       1  UNL1        0.0310
     53 H          14.5919   -0.5349    0.0000 H       1  UNL1        0.0310
     54 H          15.3889   -0.5349    0.0000 H       1  UNL1        0.0310
     55 H          21.5201   -0.5349    0.0000 H       1  UNL1        0.0310
     56 H          22.3171   -0.5349    0.0000 H       1  UNL1        0.0310
     57 H          11.0588    0.9149    0.0000 H       1  UNL1        0.0313
     58 H          10.2617    0.9149    0.0000 H       1  UNL1        0.0313
     59 H          11.1278   -0.5349    0.0000 H       1  UNL1        0.0310
     60 H          11.9248   -0.5349    0.0000 H       1  UNL1        0.0310
     61 H          24.9152    0.9149    0.0000 H       1  UNL1        0.0313
     62 H          24.1181    0.9149    0.0000 H       1  UNL1        0.0313
     63 H          15.8564    1.0600    0.0000 H       1  UNL1        0.0572
     64 H          19.3205    1.0600    0.0000 H       1  UNL1        0.0572
     65 H          12.3923    1.0600    0.0000 H       1  UNL1        0.0572
     66 H          24.9842   -0.5349    0.0000 H       1  UNL1        0.0310
     67 H          25.7812   -0.5349    0.0000 H       1  UNL1        0.0310
     68 H          22.7846    1.0600    0.0000 H       1  UNL1        0.0572
     69 H           7.6636   -0.5349    0.0000 H       1  UNL1        0.0310
     70 H           8.4607   -0.5349    0.0000 H       1  UNL1        0.0310
     71 H           7.5947    0.9149    0.0000 H       1  UNL1        0.0313
     72 H           6.7976    0.9149    0.0000 H       1  UNL1        0.0313
     73 H           8.9282    1.0600    0.0000 H       1  UNL1        0.0572
     74 H          26.2487    1.0600    0.0000 H       1  UNL1        0.0572
     75 H          16.1024   -1.0600    0.0000 H       1  UNL1        0.0274
     76 H          16.7224   -1.6800    0.0000 H       1  UNL1        0.0274
     77 H          17.3424   -1.0600    0.0000 H       1  UNL1        0.0274
     78 H          19.5665   -1.0600    0.0000 H       1  UNL1        0.0274
     79 H          20.1865   -1.6800    0.0000 H       1  UNL1        0.0274
     80 H          20.8065   -1.0600    0.0000 H       1  UNL1        0.0274
     81 H          12.6383   -1.0600    0.0000 H       1  UNL1        0.0274
     82 H          13.2583   -1.6800    0.0000 H       1  UNL1        0.0274
     83 H          13.8783   -1.0600    0.0000 H       1  UNL1        0.0274
     84 H          28.3793    0.9149    0.0000 H       1  UNL1        0.0313
     85 H          27.5822    0.9149    0.0000 H       1  UNL1        0.0313
     86 H          23.0306   -1.0600    0.0000 H       1  UNL1        0.0274
     87 H          23.6506   -1.6800    0.0000 H       1  UNL1        0.0274
     88 H          24.2706   -1.0600    0.0000 H       1  UNL1        0.0274
     89 H           9.1742   -1.0600    0.0000 H       1  UNL1        0.0274
     90 H           9.7942   -1.6800    0.0000 H       1  UNL1        0.0274
     91 H          10.4142   -1.0600    0.0000 H       1  UNL1        0.0274
     92 H          28.4483   -0.5349    0.0000 H       1  UNL1        0.0310
     93 H          29.2453   -0.5349    0.0000 H       1  UNL1        0.0310
     94 H           5.4641    1.0600    0.0000 H       1  UNL1        0.0572
     95 H           4.1996   -0.5349    0.0000 H       1  UNL1        0.0311
     96 H           4.9966   -0.5349    0.0000 H       1  UNL1        0.0311
     97 H          26.4947   -1.0600    0.0000 H       1  UNL1        0.0274
     98 H          27.1147   -1.6800    0.0000 H       1  UNL1        0.0274
     99 H          27.7347   -1.0600    0.0000 H       1  UNL1        0.0274
    100 H           5.7101   -1.0600    0.0000 H       1  UNL1        0.0274
    101 H           6.3301   -1.6800    0.0000 H       1  UNL1        0.0274
    102 H           6.9501   -1.0600    0.0000 H       1  UNL1        0.0274
    103 H           4.1306    0.9149    0.0000 H       1  UNL1        0.0344
    104 H           3.3335    0.9149    0.0000 H       1  UNL1        0.0344
    105 H          29.7128    1.0600    0.0000 H       1  UNL1        0.0572
    106 H          31.7549   -0.0969    0.0000 H       1  UNL1        0.0274
    107 H          31.9818    0.7500    0.0000 H       1  UNL1        0.0274
    108 H          31.1349    0.9769    0.0000 H       1  UNL1        0.0274
    109 H          29.9588   -1.0600    0.0000 H       1  UNL1        0.0274
    110 H          30.5788   -1.6800    0.0000 H       1  UNL1        0.0274
    111 H          31.1988   -1.0600    0.0000 H       1  UNL1        0.0274
    112 H           2.3100    0.9769    0.0000 H       1  UNL1        0.0306
    113 H           1.4631    0.7500    0.0000 H       1  UNL1        0.0306
    114 H           1.6900   -0.0969    0.0000 H       1  UNL1        0.0306
@<TRIPOS>BOND
     1     1    41    2
     2     2     4    1
     3     2     7    1
     4     2    45    1
     5     2    46    1
     6     3     6    1
     7     3    12    1
     8     3    47    1
     9     3    48    1
    10     4    15    1
    11     4    51    1
    12     4    52    1
    13     5     8    1
    14     5    11    1
    15     5    49    1
    16     5    50    1
    17     6    14    1
    18     6    53    1
    19     6    54    1
    20     7    14    2
    21     7    26    1
    22     8    20    1
    23     8    55    1
    24     8    56    1
    25     9    10    1
    26     9    17    1
    27     9    57    1
    28     9    58    1
    29    10    18    1
    30    10    59    1
    31    10    60    1
    32    11    15    2
    33    11    27    1
    34    12    18    2
    35    12    28    1
    36    13    16    1
    37    13    19    1
    38    13    61    1
    39    13    62    1
    40    14    63    1
    41    15    64    1
    42    16    20    2
    43    16    31    1
    44    17    23    2
    45    17    32    1
    46    18    65    1
    47    19    24    1
    48    19    66    1
    49    19    67    1
    50    20    68    1
    51    21    22    1
    52    21    23    1
    53    21    69    1
    54    21    70    1
    55    22    30    1
    56    22    71    1
    57    22    72    1
    58    23    73    1
    59    24    25    2
    60    24    74    1
    61    25    29    1
    62    25    36    1
    63    26    75    1
    64    26    76    1
    65    26    77    1
    66    27    78    1
    67    27    79    1
    68    27    80    1
    69    28    81    1
    70    28    82    1
    71    28    83    1
    72    29    33    1
    73    29    84    1
    74    29    85    1
    75    30    34    2
    76    30    37    1
    77    31    86    1
    78    31    87    1
    79    31    88    1
    80    32    89    1
    81    32    90    1
    82    32    91    1
    83    33    39    1
    84    33    92    1
    85    33    93    1
    86    34    35    1
    87    34    94    1
    88    35    38    1
    89    35    95    1
    90    35    96    1
    91    36    97    1
    92    36    98    1
    93    36    99    1
    94    37   100    1
    95    37   101    1
    96    37   102    1
    97    38    41    1
    98    38   103    1
    99    38   104    1
   100    39    40    2
   101    39   105    1
   102    40    42    1
   103    40    43    1
   104    41    44    1
   105    42   106    1
   106    42   107    1
   107    42   108    1
   108    43   109    1
   109    43   110    1
   110    43   111    1
   111    44   112    1
   112    44   113    1
   113    44   114    1
