@<TRIPOS>MOLECULE
IMPHY003343
 55 57 0 0 0
SMALL
GASTEIGER

@<TRIPOS>ATOM
      1 O           7.7331   -0.5950    0.0000 O.3     1  UNL1       -0.3313
      2 O           6.0010    0.4050    0.0000 O.3     1  UNL1       -0.3461
      3 O           4.2690    0.4050    0.0000 O.3     1  UNL1       -0.3461
      4 O           6.0010   -2.5950    0.0000 O.3     1  UNL1       -0.3865
      5 O           7.7331   -3.5950    0.0000 O.3     1  UNL1       -0.3864
      6 O           9.4651   -0.5950    0.0000 O.3     1  UNL1       -0.4608
      7 O           9.4651   -2.5950    0.0000 O.3     1  UNL1       -0.3829
      8 O           6.0010    2.4050    0.0000 O.3     1  UNL1       -0.3841
      9 O           4.2690    3.4050    0.0000 O.3     1  UNL1       -0.3864
     10 O           2.5369    2.4050    0.0000 O.3     1  UNL1       -0.3869
     11 C           6.8671   -1.0950    0.0000 C.3     1  UNL1        0.1144
     12 C           6.8671   -2.0950    0.0000 C.3     1  UNL1        0.1120
     13 C           7.7331   -2.5950    0.0000 C.3     1  UNL1        0.1152
     14 C           8.5991   -2.0950    0.0000 C.3     1  UNL1        0.1454
     15 C           8.5991   -1.0950    0.0000 C.3     1  UNL1        0.2308
     16 C           6.0010   -0.5950    0.0000 C.3     1  UNL1        0.0796
     17 C           5.1350    0.9050    0.0000 C.3     1  UNL1        0.1876
     18 C           5.1350    1.9050    0.0000 C.3     1  UNL1        0.1341
     19 C           4.2690    2.4050    0.0000 C.3     1  UNL1        0.1137
     20 C           3.4030    1.9050    0.0000 C.3     1  UNL1        0.1069
     21 C           3.4030    0.9050    0.0000 C.3     1  UNL1        0.0792
     22 C           9.4651    0.4050    0.0000 C.ar    1  UNL1        0.1240
     23 C          10.3312    0.9050    0.0000 C.ar    1  UNL1       -0.0193
     24 C           8.5991    0.9050    0.0000 C.ar    1  UNL1       -0.0193
     25 C          10.3312    1.9050    0.0000 C.ar    1  UNL1       -0.0512
     26 C           8.5991    1.9050    0.0000 C.ar    1  UNL1       -0.0512
     27 C           9.4651    2.4050    0.0000 C.ar    1  UNL1       -0.0254
     28 C           9.4651    3.4050    0.0000 C.2     1  UNL1       -0.0617
     29 C          10.3312    3.9050    0.0000 C.2     1  UNL1       -0.0981
     30 H           6.8671   -0.4750    0.0000 H       1  UNL1        0.0647
     31 H           6.8671   -2.7150    0.0000 H       1  UNL1        0.0647
     32 H           8.2700   -2.9050    0.0000 H       1  UNL1        0.0648
     33 H           9.1360   -1.7850    0.0000 H       1  UNL1        0.0683
     34 H           8.5991   -0.4750    0.0000 H       1  UNL1        0.1084
     35 H           5.3905   -0.4873    0.0000 H       1  UNL1        0.0587
     36 H           5.7890   -1.1776    0.0000 H       1  UNL1        0.0587
     37 H           5.6720    1.2150    0.0000 H       1  UNL1        0.0937
     38 H           5.1350    2.5250    0.0000 H       1  UNL1        0.0671
     39 H           3.7320    2.7150    0.0000 H       1  UNL1        0.0647
     40 H           3.9650    2.5250    0.0000 H       1  UNL1        0.0643
     41 H           2.7924    1.0127    0.0000 H       1  UNL1        0.0587
     42 H           3.1909    0.3224    0.0000 H       1  UNL1        0.0587
     43 H           5.4641   -2.2850    0.0000 H       1  UNL1        0.2100
     44 H           7.1962   -3.9050    0.0000 H       1  UNL1        0.2100
     45 H          10.0021   -2.2850    0.0000 H       1  UNL1        0.2102
     46 H           6.0010    3.0250    0.0000 H       1  UNL1        0.2101
     47 H           3.7320    3.7150    0.0000 H       1  UNL1        0.2100
     48 H           2.0000    2.0950    0.0000 H       1  UNL1        0.2100
     49 H          10.8681    0.5950    0.0000 H       1  UNL1        0.0654
     50 H           8.0622    0.5950    0.0000 H       1  UNL1        0.0654
     51 H          10.8681    2.2150    0.0000 H       1  UNL1        0.0625
     52 H           8.0622    2.2150    0.0000 H       1  UNL1        0.0625
     53 H           8.9282    3.7150    0.0000 H       1  UNL1        0.0618
     54 H          10.8681    3.5950    0.0000 H       1  UNL1        0.0535
     55 H          10.3312    4.5250    0.0000 H       1  UNL1        0.0535
@<TRIPOS>BOND
     1     1    11    1
     2     1    15    1
     3     2    16    1
     4    17     2    1
     5     3    17    1
     6     3    21    1
     7    12     4    1
     8     4    43    1
     9    13     5    1
    10     5    44    1
    11    15     6    1
    12     6    22    1
    13    14     7    1
    14     7    45    1
    15    18     8    1
    16     8    46    1
    17    19     9    1
    18     9    47    1
    19    20    10    1
    20    10    48    1
    21    11    12    1
    22    11    16    1
    23    11    30    1
    24    12    13    1
    25    12    31    1
    26    13    14    1
    27    13    32    1
    28    14    15    1
    29    14    33    1
    30    15    34    1
    31    16    35    1
    32    16    36    1
    33    17    18    1
    34    17    37    1
    35    18    19    1
    36    18    38    1
    37    19    20    1
    38    19    39    1
    39    20    21    1
    40    20    40    1
    41    21    41    1
    42    21    42    1
    43    22    23   ar
    44    22    24   ar
    45    23    25   ar
    46    23    49    1
    47    24    26   ar
    48    24    50    1
    49    25    27   ar
    50    25    51    1
    51    26    27   ar
    52    26    52    1
    53    27    28    1
    54    28    29    2
    55    28    53    1
    56    29    54    1
    57    29    55    1
