@<TRIPOS>MOLECULE
IMPHY008050
 19 20 0 0 0
SMALL
GASTEIGER

@<TRIPOS>ATOM
      1 O           3.7320   -1.0000    0.0000 O.3     1  UNL1       -0.4534
      2 O           7.1279    0.0000    0.0000 O.3     1  UNL1       -0.3876
      3 O           2.0000   -1.0000    0.0000 O.2     1  UNL1       -0.2456
      4 C           4.5981   -0.5000    0.0000 C.3     1  UNL1        0.1308
      5 C           5.5443   -0.8047    0.0000 C.3     1  UNL1        0.0183
      6 C           6.1279    0.0000    0.0000 C.3     1  UNL1        0.0777
      7 C           4.5981    0.5000    0.0000 C.2     1  UNL1       -0.0085
      8 C           5.5443    0.8047    0.0000 C.2     1  UNL1       -0.0491
      9 C           3.7320    1.0000    0.0000 C.2     1  UNL1       -0.0485
     10 C           2.8660    0.5000    0.0000 C.2     1  UNL1        0.0229
     11 C           2.8660   -0.5000    0.0000 C.2     1  UNL1        0.3325
     12 H           4.6637   -1.1165    0.0000 H       1  UNL1        0.0786
     13 H           5.2933   -1.3716    0.0000 H       1  UNL1        0.0332
     14 H           6.0817   -1.1140    0.0000 H       1  UNL1        0.0332
     15 H           6.4096    0.5523    0.0000 H       1  UNL1        0.0639
     16 H           5.7369    1.3940    0.0000 H       1  UNL1        0.0601
     17 H           3.7320    1.6200    0.0000 H       1  UNL1        0.0624
     18 H           2.3291    0.8100    0.0000 H       1  UNL1        0.0689
     19 H           7.4379    0.5369    0.0000 H       1  UNL1        0.2102
@<TRIPOS>BOND
     1     1     4    1
     2     1    11    1
     3     2     6    1
     4     2    19    1
     5     3    11    2
     6     4     5    1
     7     4     7    1
     8     4    12    1
     9     5     6    1
    10     5    13    1
    11     5    14    1
    12     6     8    1
    13     6    15    1
    14     7     8    2
    15     7     9    1
    16     8    16    1
    17     9    10    2
    18     9    17    1
    19    10    11    1
    20    10    18    1
