@<TRIPOS>MOLECULE
IMPHY003276
 33 34 0 0 0
SMALL
GASTEIGER

@<TRIPOS>ATOM
      1 O           2.8660    0.2500    0.0000 O.3     1  UNL1       -0.4942
      2 O           4.5981   -2.7500    0.0000 O.3     1  UNL1       -0.4949
      3 O           6.3301    0.2500    0.0000 O.3     1  UNL1       -0.5058
      4 O           3.7320    1.7500    0.0000 O.2     1  UNL1       -0.2864
      5 C           4.5981    0.2500    0.0000 C.ar    1  UNL1        0.1053
      6 C           3.7320   -0.2500    0.0000 C.ar    1  UNL1        0.1379
      7 C           5.4641   -0.2500    0.0000 C.ar    1  UNL1        0.1347
      8 C           4.5981    1.2500    0.0000 C.2     1  UNL1        0.2002
      9 C           5.4641    1.7500    0.0000 C.ar    1  UNL1        0.0225
     10 C           3.7320   -1.2500    0.0000 C.ar    1  UNL1        0.0227
     11 C           4.5981   -1.7500    0.0000 C.ar    1  UNL1        0.1271
     12 C           5.4641   -1.2500    0.0000 C.ar    1  UNL1        0.0225
     13 C           6.3301    1.2500    0.0000 C.ar    1  UNL1       -0.0509
     14 C           5.4641    2.7500    0.0000 C.ar    1  UNL1       -0.0509
     15 C           7.1962    1.7500    0.0000 C.ar    1  UNL1       -0.0611
     16 C           6.3301    3.2500    0.0000 C.ar    1  UNL1       -0.0611
     17 C           7.1962    2.7500    0.0000 C.ar    1  UNL1       -0.0617
     18 C           2.0000   -0.2500    0.0000 C.3     1  UNL1        0.0788
     19 C           3.7320   -3.2500    0.0000 C.3     1  UNL1        0.0788
     20 H           3.1951   -1.5600    0.0000 H       1  UNL1        0.0691
     21 H           6.0010   -1.5600    0.0000 H       1  UNL1        0.0691
     22 H           6.3301    0.6300    0.0000 H       1  UNL1        0.0625
     23 H           4.9272    3.0600    0.0000 H       1  UNL1        0.0625
     24 H           7.7331    1.4400    0.0000 H       1  UNL1        0.0618
     25 H           6.3301    3.8700    0.0000 H       1  UNL1        0.0618
     26 H           7.7331    3.0600    0.0000 H       1  UNL1        0.0618
     27 H           6.8671   -0.0600    0.0000 H       1  UNL1        0.2922
     28 H           1.6900    0.2869    0.0000 H       1  UNL1        0.0660
     29 H           1.4631   -0.5600    0.0000 H       1  UNL1        0.0660
     30 H           2.3100   -0.7869    0.0000 H       1  UNL1        0.0660
     31 H           3.4220   -2.7131    0.0000 H       1  UNL1        0.0660
     32 H           3.1951   -3.5600    0.0000 H       1  UNL1        0.0660
     33 H           4.0420   -3.7869    0.0000 H       1  UNL1        0.0660
@<TRIPOS>BOND
     1     1     6    1
     2     1    18    1
     3     2    11    1
     4     2    19    1
     5     3     7    1
     6     3    27    1
     7     4     8    2
     8     5     6   ar
     9     5     7   ar
    10     5     8    1
    11     6    10   ar
    12     7    12   ar
    13     8     9    1
    14     9    13   ar
    15     9    14   ar
    16    10    11   ar
    17    10    20    1
    18    11    12   ar
    19    12    21    1
    20    13    15   ar
    21    13    22    1
    22    14    16   ar
    23    14    23    1
    24    15    17   ar
    25    15    24    1
    26    16    17   ar
    27    16    25    1
    28    17    26    1
    29    18    28    1
    30    18    29    1
    31    18    30    1
    32    19    31    1
    33    19    32    1
    34    19    33    1
