@<TRIPOS>MOLECULE
IMPHY001576
 16 16 0 0 0
SMALL
GASTEIGER

@<TRIPOS>ATOM
      1 S           4.5981   -1.0000    0.0000 S.3     1  UNL1       -0.0809
      2 S           5.4641   -0.5000    0.0000 S.3     1  UNL1       -0.0646
      3 C           3.7320   -0.5000    0.0000 C.3     1  UNL1        0.0370
      4 C           3.7320    0.5000    0.0000 C.3     1  UNL1       -0.0178
      5 C           4.5981    1.0000    0.0000 C.2     1  UNL1       -0.0756
      6 C           2.8660   -1.0000    0.0000 C.2     1  UNL1       -0.0772
      7 C           5.4641    0.5000    0.0000 C.2     1  UNL1       -0.0217
      8 C           2.0000   -0.5000    0.0000 C.2     1  UNL1       -0.1016
      9 H           3.7320   -1.3500    0.0000 H       1  UNL1        0.0466
     10 H           3.5200    1.0826    0.0000 H       1  UNL1        0.0321
     11 H           3.1215    0.3923    0.0000 H       1  UNL1        0.0321
     12 H           4.5981    1.6200    0.0000 H       1  UNL1        0.0578
     13 H           2.8660   -1.6200    0.0000 H       1  UNL1        0.0578
     14 H           6.0010    0.8100    0.0000 H       1  UNL1        0.0695
     15 H           2.0000    0.1200    0.0000 H       1  UNL1        0.0532
     16 H           1.4631   -0.8100    0.0000 H       1  UNL1        0.0532
@<TRIPOS>BOND
     1     1     2    1
     2     1     3    1
     3     2     7    1
     4     3     4    1
     5     3     6    1
     6     3     9    1
     7     4     5    1
     8     4    10    1
     9     4    11    1
    10     5     7    2
    11     5    12    1
    12     6     8    2
    13     6    13    1
    14     7    14    1
    15     8    15    1
    16     8    16    1
