@<TRIPOS>MOLECULE
IMPHY013346
 49 54 0 0 0
SMALL
GASTEIGER

@<TRIPOS>ATOM
      1 O           7.8436   -0.3417    0.0000 O.3     1  UNL1       -0.4677
      2 O           6.9776   -1.8417    0.0000 O.2     1  UNL1       -0.2505
      3 N           3.7124    1.3953    0.0000 N.3     1  UNL1       -0.2940
      4 N           5.0363   -1.8135    0.0000 N.pl3   1  UNL1       -0.3361
      5 C           5.2455   -0.8417    0.0000 C.3     1  UNL1        0.0595
      6 C           4.3795   -0.3417    0.0000 C.3     1  UNL1        0.0371
      7 C           5.2455    1.1583    0.0000 C.3     1  UNL1        0.0106
      8 C           4.3795    0.6583    0.0000 C.3     1  UNL1        0.0318
      9 C           4.8795    0.1583    0.0000 C.3     1  UNL1       -0.0104
     10 C           6.1115   -0.3417    0.0000 C.3     1  UNL1        0.0795
     11 C           6.1115    0.6583    0.0000 C.3     1  UNL1       -0.0272
     12 C           3.4077   -0.1325    0.0000 C.3     1  UNL1       -0.0270
     13 C           3.6425   -1.0088    0.0000 C.ar    1  UNL1       -0.0168
     14 C           3.0546    0.9232    0.0000 C.3     1  UNL1        0.0005
     15 C           5.4666    2.1248    0.0000 C.2     1  UNL1       -0.0787
     16 C           3.8795    0.1583    0.0000 C.3     1  UNL1       -0.0596
     17 C           4.0476   -1.9166    0.0000 C.ar    1  UNL1        0.0315
     18 C           3.7934    2.3834    0.0000 C.3     1  UNL1        0.0174
     19 C           6.9776   -0.8417    0.0000 C.2     1  UNL1        0.3121
     20 C           4.7089    2.7641    0.0000 C.2     1  UNL1       -0.0734
     21 C           2.6144   -0.8856    0.0000 C.ar    1  UNL1       -0.0562
     22 C           3.4527   -2.7641    0.0000 C.ar    1  UNL1       -0.0406
     23 C           2.0000   -1.7191    0.0000 C.ar    1  UNL1       -0.0614
     24 C           2.4220   -2.6647    0.0000 C.ar    1  UNL1       -0.0600
     25 C           8.7096   -0.8417    0.0000 C.3     1  UNL1        0.0817
     26 H           3.5424    0.8059    0.0000 H       1  UNL1        0.0481
     27 H           4.5243    0.6665    0.0000 H       1  UNL1        0.0328
     28 H           6.1115   -0.9617    0.0000 H       1  UNL1        0.0435
     29 H           6.7221    0.5506    0.0000 H       1  UNL1        0.0283
     30 H           6.3236    1.2409    0.0000 H       1  UNL1        0.0283
     31 H           2.7941   -0.2218    0.0000 H       1  UNL1        0.0287
     32 H           3.3867   -0.7522    0.0000 H       1  UNL1        0.0287
     33 H           5.4504   -2.2750    0.0000 H       1  UNL1        0.1467
     34 H           2.7451    1.4604    0.0000 H       1  UNL1        0.0427
     35 H           2.4892    0.6689    0.0000 H       1  UNL1        0.0427
     36 H           6.0547    2.3213    0.0000 H       1  UNL1        0.0576
     37 H           3.8795    0.7783    0.0000 H       1  UNL1        0.0233
     38 H           3.2595    0.1583    0.0000 H       1  UNL1        0.0233
     39 H           3.8795   -0.4617    0.0000 H       1  UNL1        0.0233
     40 H           3.6488    2.9863    0.0000 H       1  UNL1        0.0470
     41 H           3.1752    2.3359    0.0000 H       1  UNL1        0.0470
     42 H           4.8036    3.3768    0.0000 H       1  UNL1        0.0582
     43 H           2.3683   -0.3165    0.0000 H       1  UNL1        0.0621
     44 H           3.7119   -3.3273    0.0000 H       1  UNL1        0.0636
     45 H           1.3836   -1.6525    0.0000 H       1  UNL1        0.0618
     46 H           2.0599   -3.1680    0.0000 H       1  UNL1        0.0618
     47 H           8.3996   -1.3786    0.0000 H       1  UNL1        0.0661
     48 H           9.2465   -1.1517    0.0000 H       1  UNL1        0.0661
     49 H           9.0196   -0.3048    0.0000 H       1  UNL1        0.0661
@<TRIPOS>BOND
     1     1    19    1
     2     1    25    1
     3     2    19    2
     4     3     8    1
     5     3    14    1
     6     3    18    1
     7     5     4    1
     8     4    17    1
     9     4    33    1
    10     5     6    1
    11     5     9    1
    12     5    10    1
    13     6     8    1
    14     6    12    1
    15     6    13    1
    16     7     8    1
    17     7     9    1
    18     7    11    1
    19     7    15    1
    20     8    26    1
    21     9    16    1
    22     9    27    1
    23    10    11    1
    24    10    19    1
    25    10    28    1
    26    11    29    1
    27    11    30    1
    28    12    14    1
    29    12    31    1
    30    12    32    1
    31    13    17   ar
    32    13    21   ar
    33    14    34    1
    34    14    35    1
    35    15    20    2
    36    15    36    1
    37    16    37    1
    38    16    38    1
    39    16    39    1
    40    17    22   ar
    41    18    20    1
    42    18    40    1
    43    18    41    1
    44    20    42    1
    45    21    23   ar
    46    21    43    1
    47    22    24   ar
    48    22    44    1
    49    23    24   ar
    50    23    45    1
    51    24    46    1
    52    25    47    1
    53    25    48    1
    54    25    49    1
