@<TRIPOS>MOLECULE
IMPHY008483
 28 29 0 0 0
SMALL
GASTEIGER

@<TRIPOS>ATOM
      1 O           2.0000   -0.9827    0.0000 O.3     1  UNL1       -0.4914
      2 O           2.0000    1.0173    0.0000 O.3     1  UNL1       -0.4914
      3 N           6.3981   -0.5035    0.0000 N.ar    1  UNL1       -0.2595
      4 C           4.5981   -0.4827    0.0000 C.ar    1  UNL1        0.0068
      5 C           4.5981    0.5173    0.0000 C.ar    1  UNL1       -0.0111
      6 C           3.7320   -0.9827    0.0000 C.ar    1  UNL1       -0.0069
      7 C           5.4920   -1.0174    0.0000 C.ar    1  UNL1        0.0460
      8 C           3.7320    1.0173    0.0000 C.ar    1  UNL1       -0.0085
      9 C           2.8660   -0.4827    0.0000 C.ar    1  UNL1        0.1621
     10 C           2.8660    0.5173    0.0000 C.ar    1  UNL1        0.1621
     11 C           5.4920    1.0520    0.0000 C.ar    1  UNL1       -0.0357
     12 C           5.4804   -2.0173    0.0000 C.3     1  UNL1       -0.0218
     13 C           6.3981    0.5381    0.0000 C.ar    1  UNL1        0.0285
     14 C           2.0000   -1.9827    0.0000 C.3     1  UNL1        0.0790
     15 C           2.0000    2.0173    0.0000 C.3     1  UNL1        0.0790
     16 H           3.7320   -1.6027    0.0000 H       1  UNL1        0.0662
     17 H           3.7320    1.6373    0.0000 H       1  UNL1        0.0661
     18 H           5.4848    1.6719    0.0000 H       1  UNL1        0.0639
     19 H           4.8605   -2.0101    0.0000 H       1  UNL1        0.0293
     20 H           5.4733   -2.6373    0.0000 H       1  UNL1        0.0293
     21 H           6.1004   -2.0245    0.0000 H       1  UNL1        0.0293
     22 H           6.9338    0.8502    0.0000 H       1  UNL1        0.0830
     23 H           1.3800   -1.9827    0.0000 H       1  UNL1        0.0660
     24 H           2.0000   -2.6027    0.0000 H       1  UNL1        0.0660
     25 H           2.6200   -1.9827    0.0000 H       1  UNL1        0.0660
     26 H           2.6200    2.0173    0.0000 H       1  UNL1        0.0660
     27 H           2.0000    2.6373    0.0000 H       1  UNL1        0.0660
     28 H           1.3800    2.0173    0.0000 H       1  UNL1        0.0660
@<TRIPOS>BOND
     1     1     9    1
     2     1    14    1
     3     2    10    1
     4     2    15    1
     5     3     7   ar
     6     3    13   ar
     7     4     5   ar
     8     4     6   ar
     9     4     7   ar
    10     5     8   ar
    11     5    11   ar
    12     6     9   ar
    13     6    16    1
    14     7    12    1
    15     8    10   ar
    16     8    17    1
    17     9    10   ar
    18    11    13   ar
    19    11    18    1
    20    12    19    1
    21    12    20    1
    22    12    21    1
    23    13    22    1
    24    14    23    1
    25    14    24    1
    26    14    25    1
    27    15    26    1
    28    15    27    1
    29    15    28    1
