@<TRIPOS>MOLECULE
IMPHY010604
 63 67 0 0 0
SMALL
GASTEIGER

@<TRIPOS>ATOM
      1 N           9.0503    2.1557    0.0000 N.3     1  UNL1       -0.3018
      2 N           2.8641   -2.5357    0.0000 N.3     1  UNL1       -0.3159
      3 C           8.2572    0.5166    0.0000 C.3     1  UNL1       -0.0092
      4 C           8.2572   -0.4834    0.0000 C.3     1  UNL1       -0.0305
      5 C           9.2034    0.8214    0.0000 C.3     1  UNL1       -0.0186
      6 C           7.3912   -0.9834    0.0000 C.3     1  UNL1       -0.0306
      7 C           6.5251   -0.4834    0.0000 C.3     1  UNL1       -0.0285
      8 C           7.3912    1.0166    0.0000 C.3     1  UNL1       -0.0454
      9 C           9.2034   -0.7881    0.0000 C.3     1  UNL1       -0.0491
     10 C           8.1590    1.4999    0.0000 C.3     1  UNL1        0.0051
     11 C           9.7870    0.0166    0.0000 C.3     1  UNL1       -0.0480
     12 C           9.6975    1.6772    0.0000 C.3     1  UNL1        0.0107
     13 C           6.5251    0.5166    0.0000 C.3     1  UNL1       -0.0486
     14 C           5.6151   -0.9902    0.0000 C.3     1  UNL1       -0.0079
     15 C           7.4072   -2.0249    0.0000 C.3     1  UNL1       -0.0311
     16 C           5.6071   -2.0318    0.0000 C.2     1  UNL1       -0.0658
     17 C           4.6883   -0.4261    0.0000 C.3     1  UNL1       -0.0422
     18 C           6.5092   -2.5526    0.0000 C.2     1  UNL1       -0.0839
     19 C          10.6488    1.9854    0.0000 C.3     1  UNL1       -0.0492
     20 C           5.6228    0.0098    0.0000 C.3     1  UNL1       -0.0556
     21 C           4.6717   -2.5816    0.0000 C.3     1  UNL1       -0.0158
     22 C           3.7404   -0.9541    0.0000 C.3     1  UNL1       -0.0365
     23 C           9.0529    3.1557    0.0000 C.3     1  UNL1       -0.0125
     24 C           3.7320   -2.0390    0.0000 C.3     1  UNL1        0.0111
     25 C           2.0000   -2.0324    0.0000 C.3     1  UNL1       -0.0155
     26 H           8.3228   -1.0999    0.0000 H       1  UNL1        0.0309
     27 H           9.8226    0.8535    0.0000 H       1  UNL1        0.0322
     28 H           7.9305   -1.2892    0.0000 H       1  UNL1        0.0309
     29 H           7.0621   -0.1734    0.0000 H       1  UNL1        0.0312
     30 H           7.7897    1.4916    0.0000 H       1  UNL1        0.0271
     31 H           6.9926    1.4916    0.0000 H       1  UNL1        0.0271
     32 H           8.9524   -1.3550    0.0000 H       1  UNL1        0.0268
     33 H           9.7408   -1.0973    0.0000 H       1  UNL1        0.0268
     34 H           7.8859    2.0566    0.0000 H       1  UNL1        0.0432
     35 H           7.5628    1.3299    0.0000 H       1  UNL1        0.0432
     36 H          10.2479   -0.3981    0.0000 H       1  UNL1        0.0269
     37 H          10.2479    0.4314    0.0000 H       1  UNL1        0.0269
     38 H           9.7973    2.2891    0.0000 H       1  UNL1        0.0463
     39 H           6.3131    1.0992    0.0000 H       1  UNL1        0.0268
     40 H           5.9145    0.4090    0.0000 H       1  UNL1        0.0268
     41 H           7.6252   -2.6053    0.0000 H       1  UNL1        0.0310
     42 H           8.0164   -1.9094    0.0000 H       1  UNL1        0.0310
     43 H           5.0965    0.0405    0.0000 H       1  UNL1        0.0274
     44 H           4.2984    0.0559    0.0000 H       1  UNL1        0.0274
     45 H           6.5116   -3.1726    0.0000 H       1  UNL1        0.0572
     46 H          10.8399    1.3955    0.0000 H       1  UNL1        0.0245
     47 H          11.2386    2.1764    0.0000 H       1  UNL1        0.0245
     48 H          10.4577    2.5752    0.0000 H       1  UNL1        0.0245
     49 H           6.2428    0.0050    0.0000 H       1  UNL1        0.0238
     50 H           5.6276    0.6297    0.0000 H       1  UNL1        0.0238
     51 H           5.0028    0.0145    0.0000 H       1  UNL1        0.0238
     52 H           4.2744   -3.0575    0.0000 H       1  UNL1        0.0325
     53 H           5.0726   -3.0544    0.0000 H       1  UNL1        0.0325
     54 H           3.5358   -0.3688    0.0000 H       1  UNL1        0.0281
     55 H           3.1288   -1.0555    0.0000 H       1  UNL1        0.0281
     56 H           9.6729    3.1541    0.0000 H       1  UNL1        0.0391
     57 H           9.0545    3.7757    0.0000 H       1  UNL1        0.0391
     58 H           8.4329    3.1573    0.0000 H       1  UNL1        0.0391
     59 H           3.7308   -2.6590    0.0000 H       1  UNL1        0.0463
     60 H           2.8617   -3.1557    0.0000 H       1  UNL1        0.1219
     61 H           2.3121   -1.4966    0.0000 H       1  UNL1        0.0388
     62 H           1.4643   -1.7203    0.0000 H       1  UNL1        0.0388
     63 H           1.6879   -2.5681    0.0000 H       1  UNL1        0.0388
@<TRIPOS>BOND
     1     1    10    1
     2     1    12    1
     3     1    23    1
     4     2    24    1
     5     2    25    1
     6     2    60    1
     7     3     4    1
     8     3     5    1
     9     3     8    1
    10     3    10    1
    11     4     6    1
    12     4     9    1
    13     4    26    1
    14     5    11    1
    15     5    12    1
    16     5    27    1
    17     6     7    1
    18     6    15    1
    19     6    28    1
    20     7    13    1
    21     7    14    1
    22     7    29    1
    23     8    13    1
    24     8    30    1
    25     8    31    1
    26     9    11    1
    27     9    32    1
    28     9    33    1
    29    10    34    1
    30    10    35    1
    31    11    36    1
    32    11    37    1
    33    12    19    1
    34    12    38    1
    35    13    39    1
    36    13    40    1
    37    14    16    1
    38    14    17    1
    39    14    20    1
    40    15    18    1
    41    15    41    1
    42    15    42    1
    43    16    18    2
    44    16    21    1
    45    17    22    1
    46    17    43    1
    47    17    44    1
    48    18    45    1
    49    19    46    1
    50    19    47    1
    51    19    48    1
    52    20    49    1
    53    20    50    1
    54    20    51    1
    55    21    24    1
    56    21    52    1
    57    21    53    1
    58    22    24    1
    59    22    54    1
    60    22    55    1
    61    23    56    1
    62    23    57    1
    63    23    58    1
    64    24    59    1
    65    25    61    1
    66    25    62    1
    67    25    63    1
