@<TRIPOS>MOLECULE
IMPHY015863
 58 57 0 0 0
SMALL
GASTEIGER

@<TRIPOS>ATOM
      1 O          18.4545   -0.5600    0.0000 O.2     1  UNL1       -0.3010
      2 C           9.7942   -0.5600    0.0000 C.3     1  UNL1       -0.0531
      3 C           8.9282   -0.0600    0.0000 C.3     1  UNL1       -0.0531
      4 C          10.6603   -0.0600    0.0000 C.3     1  UNL1       -0.0531
      5 C           8.0622   -0.5600    0.0000 C.3     1  UNL1       -0.0531
      6 C          11.5263   -0.5600    0.0000 C.3     1  UNL1       -0.0531
      7 C           7.1962   -0.0600    0.0000 C.3     1  UNL1       -0.0531
      8 C          12.3923   -0.0600    0.0000 C.3     1  UNL1       -0.0531
      9 C           6.3301   -0.5600    0.0000 C.3     1  UNL1       -0.0531
     10 C          13.2583   -0.5600    0.0000 C.3     1  UNL1       -0.0531
     11 C           5.4641   -0.0600    0.0000 C.3     1  UNL1       -0.0531
     12 C          14.1244   -0.0600    0.0000 C.3     1  UNL1       -0.0530
     13 C           4.5981   -0.5600    0.0000 C.3     1  UNL1       -0.0531
     14 C          14.9904   -0.5600    0.0000 C.3     1  UNL1       -0.0527
     15 C           3.7320   -0.0600    0.0000 C.3     1  UNL1       -0.0533
     16 C          15.8564   -0.0600    0.0000 C.3     1  UNL1       -0.0466
     17 C           2.8660   -0.5600    0.0000 C.3     1  UNL1       -0.0559
     18 C          16.7224   -0.5600    0.0000 C.3     1  UNL1        0.0028
     19 C           2.0000   -0.0600    0.0000 C.3     1  UNL1       -0.0653
     20 C          17.5885   -0.0600    0.0000 C.2     1  UNL1        0.1203
     21 H           9.3957   -1.0350    0.0000 H       1  UNL1        0.0265
     22 H          10.1928   -1.0350    0.0000 H       1  UNL1        0.0265
     23 H           9.3267    0.4149    0.0000 H       1  UNL1        0.0265
     24 H           8.5297    0.4149    0.0000 H       1  UNL1        0.0265
     25 H          11.0588    0.4149    0.0000 H       1  UNL1        0.0265
     26 H          10.2617    0.4149    0.0000 H       1  UNL1        0.0265
     27 H           7.6636   -1.0350    0.0000 H       1  UNL1        0.0265
     28 H           8.4607   -1.0350    0.0000 H       1  UNL1        0.0265
     29 H          11.1278   -1.0350    0.0000 H       1  UNL1        0.0265
     30 H          11.9248   -1.0350    0.0000 H       1  UNL1        0.0265
     31 H           7.5947    0.4149    0.0000 H       1  UNL1        0.0265
     32 H           6.7976    0.4149    0.0000 H       1  UNL1        0.0265
     33 H          12.7908    0.4149    0.0000 H       1  UNL1        0.0265
     34 H          11.9938    0.4149    0.0000 H       1  UNL1        0.0265
     35 H           5.9316   -1.0350    0.0000 H       1  UNL1        0.0265
     36 H           6.7287   -1.0350    0.0000 H       1  UNL1        0.0265
     37 H          12.8598   -1.0350    0.0000 H       1  UNL1        0.0265
     38 H          13.6569   -1.0350    0.0000 H       1  UNL1        0.0265
     39 H           5.8626    0.4149    0.0000 H       1  UNL1        0.0265
     40 H           5.0656    0.4149    0.0000 H       1  UNL1        0.0265
     41 H          14.5229    0.4149    0.0000 H       1  UNL1        0.0265
     42 H          13.7258    0.4149    0.0000 H       1  UNL1        0.0265
     43 H           4.1996   -1.0350    0.0000 H       1  UNL1        0.0265
     44 H           4.9966   -1.0350    0.0000 H       1  UNL1        0.0265
     45 H          14.5919   -1.0350    0.0000 H       1  UNL1        0.0265
     46 H          15.3889   -1.0350    0.0000 H       1  UNL1        0.0265
     47 H           4.1306    0.4149    0.0000 H       1  UNL1        0.0265
     48 H           3.3335    0.4149    0.0000 H       1  UNL1        0.0265
     49 H          16.2549    0.4149    0.0000 H       1  UNL1        0.0269
     50 H          15.4579    0.4149    0.0000 H       1  UNL1        0.0269
     51 H           2.4675   -1.0350    0.0000 H       1  UNL1        0.0263
     52 H           3.2646   -1.0350    0.0000 H       1  UNL1        0.0263
     53 H          16.3239   -1.0350    0.0000 H       1  UNL1        0.0339
     54 H          17.1210   -1.0350    0.0000 H       1  UNL1        0.0339
     55 H           2.3100    0.4769    0.0000 H       1  UNL1        0.0230
     56 H           1.4631    0.2500    0.0000 H       1  UNL1        0.0230
     57 H           1.6900   -0.5969    0.0000 H       1  UNL1        0.0230
     58 H          17.5885    0.5600    0.0000 H       1  UNL1        0.1026
@<TRIPOS>BOND
     1     1    20    2
     2     2     3    1
     3     2     4    1
     4     2    21    1
     5     2    22    1
     6     3     5    1
     7     3    23    1
     8     3    24    1
     9     4     6    1
    10     4    25    1
    11     4    26    1
    12     5     7    1
    13     5    27    1
    14     5    28    1
    15     6     8    1
    16     6    29    1
    17     6    30    1
    18     7     9    1
    19     7    31    1
    20     7    32    1
    21     8    10    1
    22     8    33    1
    23     8    34    1
    24     9    11    1
    25     9    35    1
    26     9    36    1
    27    10    12    1
    28    10    37    1
    29    10    38    1
    30    11    13    1
    31    11    39    1
    32    11    40    1
    33    12    14    1
    34    12    41    1
    35    12    42    1
    36    13    15    1
    37    13    43    1
    38    13    44    1
    39    14    16    1
    40    14    45    1
    41    14    46    1
    42    15    17    1
    43    15    47    1
    44    15    48    1
    45    16    18    1
    46    16    49    1
    47    16    50    1
    48    17    19    1
    49    17    51    1
    50    17    52    1
    51    18    20    1
    52    18    53    1
    53    18    54    1
    54    19    55    1
    55    19    56    1
    56    19    57    1
    57    20    58    1
