@<TRIPOS>MOLECULE
IMPHY010004
 82 86 0 0 0
SMALL
GASTEIGER

@<TRIPOS>ATOM
      1 O           2.1236   -2.3043    0.0000 O.3     1  UNL1       -0.3912
      2 O          11.1246    2.8924    0.0000 O.2     1  UNL1       -0.2971
      3 C           6.6507   -0.7520    0.0000 C.3     1  UNL1       -0.0231
      4 C           5.7847   -0.2520    0.0000 C.3     1  UNL1       -0.0230
      5 C           7.5167   -0.2520    0.0000 C.3     1  UNL1       -0.0294
      6 C           7.5167    0.7480    0.0000 C.3     1  UNL1       -0.0254
      7 C           4.8746   -0.7588    0.0000 C.3     1  UNL1       -0.0291
      8 C           4.8666   -1.8004    0.0000 C.3     1  UNL1       -0.0263
      9 C           8.4106    1.2827    0.0000 C.3     1  UNL1       -0.0289
     10 C           5.7847    0.7480    0.0000 C.3     1  UNL1       -0.0463
     11 C           6.6507    1.2480    0.0000 C.3     1  UNL1       -0.0466
     12 C           6.6667   -1.7935    0.0000 C.3     1  UNL1       -0.0463
     13 C           9.3167    0.7688    0.0000 C.3     1  UNL1       -0.0195
     14 C           8.4106   -0.7866    0.0000 C.3     1  UNL1       -0.0487
     15 C           5.7687   -2.3212    0.0000 C.3     1  UNL1       -0.0467
     16 C           3.9478   -0.1947    0.0000 C.3     1  UNL1       -0.0417
     17 C           9.3167   -0.2728    0.0000 C.3     1  UNL1       -0.0464
     18 C           7.5167   -1.2520    0.0000 C.3     1  UNL1       -0.0588
     19 C           4.9186    0.2480    0.0000 C.3     1  UNL1       -0.0588
     20 C           3.9312   -2.3502    0.0000 C.3     1  UNL1       -0.0207
     21 C           2.9999   -0.7227    0.0000 C.3     1  UNL1       -0.0086
     22 C           7.5167    1.7480    0.0000 C.3     1  UNL1       -0.0590
     23 C           8.3856    2.3674    0.0000 C.3     1  UNL1       -0.0425
     24 C          10.2605    1.3041    0.0000 C.3     1  UNL1        0.0203
     25 C           2.9916   -1.8076    0.0000 C.3     1  UNL1        0.0609
     26 C           4.8589   -2.8004    0.0000 C.3     1  UNL1       -0.0592
     27 C          10.1866    0.2755    0.0000 C.3     1  UNL1       -0.0587
     28 C           9.3167    2.9243    0.0000 C.3     1  UNL1        0.0064
     29 C          10.2605    2.3891    0.0000 C.2     1  UNL1        0.1367
     30 C           2.0000   -0.7111    0.0000 C.3     1  UNL1       -0.0575
     31 C           2.5100    0.1491    0.0000 C.3     1  UNL1       -0.0575
     32 C          11.1246    0.8007    0.0000 C.3     1  UNL1       -0.0552
     33 H           8.2561    0.1673    0.0000 H       1  UNL1        0.0312
     34 H           5.6058   -1.1923    0.0000 H       1  UNL1        0.0312
     35 H           9.1401    1.7190    0.0000 H       1  UNL1        0.0312
     36 H           5.5726    1.3306    0.0000 H       1  UNL1        0.0271
     37 H           5.1741    0.6404    0.0000 H       1  UNL1        0.0271
     38 H           7.0492    1.7230    0.0000 H       1  UNL1        0.0271
     39 H           6.2522    1.7230    0.0000 H       1  UNL1        0.0271
     40 H           6.8848   -2.3739    0.0000 H       1  UNL1        0.0271
     41 H           7.2759   -1.6780    0.0000 H       1  UNL1        0.0271
     42 H           8.0060   -1.2564    0.0000 H       1  UNL1        0.0268
     43 H           8.8043   -1.2657    0.0000 H       1  UNL1        0.0268
     44 H           5.3714   -2.7972    0.0000 H       1  UNL1        0.0271
     45 H           6.1697   -2.7941    0.0000 H       1  UNL1        0.0271
     46 H           4.3560    0.2719    0.0000 H       1  UNL1        0.0274
     47 H           3.5579    0.2873    0.0000 H       1  UNL1        0.0274
     48 H           9.5258   -0.8565    0.0000 H       1  UNL1        0.0271
     49 H           9.9276   -0.1667    0.0000 H       1  UNL1        0.0271
     50 H           7.2067   -1.7889    0.0000 H       1  UNL1        0.0235
     51 H           8.0536   -1.5620    0.0000 H       1  UNL1        0.0235
     52 H           7.8267   -0.7150    0.0000 H       1  UNL1        0.0235
     53 H           5.2286    0.7850    0.0000 H       1  UNL1        0.0235
     54 H           4.3817    0.5580    0.0000 H       1  UNL1        0.0235
     55 H           4.6086   -0.2889    0.0000 H       1  UNL1        0.0235
     56 H           3.5339   -2.8261    0.0000 H       1  UNL1        0.0296
     57 H           4.3322   -2.8230    0.0000 H       1  UNL1        0.0296
     58 H           8.1367    1.7480    0.0000 H       1  UNL1        0.0235
     59 H           7.5167    2.3680    0.0000 H       1  UNL1        0.0235
     60 H           6.8967    1.7480    0.0000 H       1  UNL1        0.0235
     61 H           8.1631    2.9461    0.0000 H       1  UNL1        0.0272
     62 H           7.7773    2.2472    0.0000 H       1  UNL1        0.0272
     63 H          10.7980    1.6130    0.0000 H       1  UNL1        0.0380
     64 H           2.9904   -2.4276    0.0000 H       1  UNL1        0.0599
     65 H           4.2389   -2.7956    0.0000 H       1  UNL1        0.0235
     66 H           4.8541   -3.4204    0.0000 H       1  UNL1        0.0235
     67 H           5.4789   -2.8052    0.0000 H       1  UNL1        0.0235
     68 H           9.8807   -0.2638    0.0000 H       1  UNL1        0.0235
     69 H          10.7259   -0.0303    0.0000 H       1  UNL1        0.0235
     70 H          10.4924    0.8148    0.0000 H       1  UNL1        0.0235
     71 H           9.7103    3.4033    0.0000 H       1  UNL1        0.0342
     72 H           8.9121    3.3941    0.0000 H       1  UNL1        0.0342
     73 H           2.0072   -0.0912    0.0000 H       1  UNL1        0.0236
     74 H           1.3800   -0.7040    0.0000 H       1  UNL1        0.0236
     75 H           1.9928   -1.3311    0.0000 H       1  UNL1        0.0236
     76 H           3.0505    0.4528    0.0000 H       1  UNL1        0.0236
     77 H           2.2062    0.6895    0.0000 H       1  UNL1        0.0236
     78 H           1.9695   -0.1547    0.0000 H       1  UNL1        0.0236
     79 H          10.8125    0.2650    0.0000 H       1  UNL1        0.0237
     80 H          11.6603    0.4887    0.0000 H       1  UNL1        0.0237
     81 H          11.4367    1.3365    0.0000 H       1  UNL1        0.0237
     82 H           2.1212   -2.9243    0.0000 H       1  UNL1        0.2098
@<TRIPOS>BOND
     1    25     1    1
     2     1    82    1
     3     2    29    2
     4     3     4    1
     5     3     5    1
     6     3    12    1
     7     3    18    1
     8     4     7    1
     9     4    10    1
    10     4    19    1
    11     5     6    1
    12     5    14    1
    13     5    33    1
    14     6     9    1
    15     6    11    1
    16     6    22    1
    17     7     8    1
    18     7    16    1
    19     7    34    1
    20     8    15    1
    21     8    20    1
    22     8    26    1
    23     9    13    1
    24     9    23    1
    25     9    35    1
    26    10    11    1
    27    10    36    1
    28    10    37    1
    29    11    38    1
    30    11    39    1
    31    12    15    1
    32    12    40    1
    33    12    41    1
    34    13    17    1
    35    13    24    1
    36    13    27    1
    37    14    17    1
    38    14    42    1
    39    14    43    1
    40    15    44    1
    41    15    45    1
    42    16    21    1
    43    16    46    1
    44    16    47    1
    45    17    48    1
    46    17    49    1
    47    18    50    1
    48    18    51    1
    49    18    52    1
    50    19    53    1
    51    19    54    1
    52    19    55    1
    53    20    25    1
    54    20    56    1
    55    20    57    1
    56    21    25    1
    57    21    30    1
    58    21    31    1
    59    22    58    1
    60    22    59    1
    61    22    60    1
    62    23    28    1
    63    23    61    1
    64    23    62    1
    65    24    29    1
    66    24    32    1
    67    24    63    1
    68    25    64    1
    69    26    65    1
    70    26    66    1
    71    26    67    1
    72    27    68    1
    73    27    69    1
    74    27    70    1
    75    28    29    1
    76    28    71    1
    77    28    72    1
    78    30    73    1
    79    30    74    1
    80    30    75    1
    81    31    76    1
    82    31    77    1
    83    31    78    1
    84    32    79    1
    85    32    80    1
    86    32    81    1
