@<TRIPOS>MOLECULE
IMPHY000932
 32 35 0 0 0
SMALL
GASTEIGER

@<TRIPOS>ATOM
      1 O           5.6783   -1.4663    0.0000 O.2     1  UNL1       -0.4537
      2 O           7.8223    0.6022    0.0000 O.2     1  UNL1       -0.4214
      3 O           2.8182    1.3807    0.0000 O.3     1  UNL1       -0.4914
      4 O           6.5352    1.7612    0.0000 O.2     1  UNL1       -0.2444
      5 O           2.1888   -0.5620    0.0000 O.3     1  UNL1       -0.5032
      6 O          10.4619   -1.7419    0.0000 O.3     1  UNL1       -0.5066
      7 C           6.1750    0.0670    0.0000 C.ar    1  UNL1        0.1129
      8 C           5.1810    0.0644    0.0000 C.ar    1  UNL1        0.0385
      9 C           6.4840   -0.8841    0.0000 C.ar    1  UNL1        0.1538
     10 C           4.8746   -0.8813    0.0000 C.ar    1  UNL1        0.1402
     11 C           7.4622   -1.0920    0.0000 C.ar    1  UNL1        0.0607
     12 C           8.1313   -0.3488    0.0000 C.ar    1  UNL1        0.1461
     13 C           4.4994    0.8439    0.0000 C.ar    1  UNL1       -0.0047
     14 C           6.8442    0.8101    0.0000 C.ar    1  UNL1        0.3488
     15 C           3.8654   -1.1130    0.0000 C.ar    1  UNL1        0.0264
     16 C           3.4851    0.6356    0.0000 C.ar    1  UNL1        0.1621
     17 C           7.7688   -2.0875    0.0000 C.ar    1  UNL1       -0.0441
     18 C           3.1660   -0.3495    0.0000 C.ar    1  UNL1        0.1620
     19 C           9.1534   -0.5497    0.0000 C.ar    1  UNL1        0.0230
     20 C           8.7859   -2.3119    0.0000 C.ar    1  UNL1       -0.0193
     21 C           9.4829   -1.5378    0.0000 C.ar    1  UNL1        0.1204
     22 C           3.1300    2.3308    0.0000 C.3     1  UNL1        0.0790
     23 H           4.6973    1.4315    0.0000 H       1  UNL1        0.0663
     24 H           3.6812   -1.7050    0.0000 H       1  UNL1        0.0692
     25 H           7.3486   -2.5434    0.0000 H       1  UNL1        0.0627
     26 H           9.5629   -0.0841    0.0000 H       1  UNL1        0.0691
     27 H           8.9753   -2.9023    0.0000 H       1  UNL1        0.0654
     28 H           2.0000   -1.1526    0.0000 H       1  UNL1        0.2923
     29 H           3.7191    2.1375    0.0000 H       1  UNL1        0.0660
     30 H           3.3234    2.9199    0.0000 H       1  UNL1        0.0660
     31 H           2.5410    2.5242    0.0000 H       1  UNL1        0.0660
     32 H          10.6557   -2.3308    0.0000 H       1  UNL1        0.2921
@<TRIPOS>BOND
     1     1     9   ar
     2     1    10   ar
     3     2    12   ar
     4     2    14   ar
     5     3    16    1
     6     3    22    1
     7     4    14    2
     8     5    18    1
     9     5    28    1
    10     6    21    1
    11     6    32    1
    12     7     8   ar
    13     7     9   ar
    14     7    14   ar
    15     8    10   ar
    16     8    13   ar
    17     9    11   ar
    18    10    15   ar
    19    11    12   ar
    20    11    17   ar
    21    12    19   ar
    22    13    16   ar
    23    13    23    1
    24    15    18   ar
    25    15    24    1
    26    16    18   ar
    27    17    20   ar
    28    17    25    1
    29    19    21   ar
    30    19    26    1
    31    20    21   ar
    32    20    27    1
    33    22    29    1
    34    22    30    1
    35    22    31    1
