@<TRIPOS>MOLECULE
IMPHY011769
 36 38 0 0 0
SMALL
GASTEIGER

@<TRIPOS>ATOM
      1 O           3.5836   -0.1023    0.0000 O.3     1  UNL1       -0.4564
      2 O           2.0000   -0.9070    0.0000 O.2     1  UNL1       -0.2505
      3 O           6.2740    2.6622    0.0000 O.2     1  UNL1       -0.2876
      4 C           4.5298   -1.4070    0.0000 C.3     1  UNL1        0.0128
      5 C           4.5298   -0.4070    0.0000 C.3     1  UNL1        0.1291
      6 C           6.2619   -0.4070    0.0000 C.3     1  UNL1        0.0114
      7 C           5.3958   -1.9070    0.0000 C.3     1  UNL1       -0.0447
      8 C           5.3958    0.0930    0.0000 C.2     1  UNL1       -0.0131
      9 C           6.2619   -1.4070    0.0000 C.3     1  UNL1       -0.0399
     10 C           3.5836   -1.7117    0.0000 C.3     1  UNL1        0.0601
     11 C           3.0000   -0.9070    0.0000 C.2     1  UNL1        0.3109
     12 C           7.1279   -0.9070    0.0000 C.3     1  UNL1       -0.0522
     13 C           7.1719    0.0998    0.0000 C.2     1  UNL1       -0.0704
     14 C           5.3798    1.1345    0.0000 C.2     1  UNL1       -0.0003
     15 C           3.2729   -2.6622    0.0000 C.3     1  UNL1       -0.0519
     16 C           7.1799    1.1414    0.0000 C.2     1  UNL1       -0.0178
     17 C           6.2778    1.6623    0.0000 C.2     1  UNL1        0.1817
     18 C           4.5080    1.6245    0.0000 C.3     1  UNL1       -0.0360
     19 H           4.4399   -2.2522    0.0000 H       1  UNL1        0.0348
     20 H           4.4399    0.4382    0.0000 H       1  UNL1        0.0785
     21 H           4.9973   -2.3819    0.0000 H       1  UNL1        0.0270
     22 H           5.7944   -2.3819    0.0000 H       1  UNL1        0.0270
     23 H           6.4739   -1.9896    0.0000 H       1  UNL1        0.0277
     24 H           6.8725   -1.2993    0.0000 H       1  UNL1        0.0277
     25 H           2.9711   -1.8079    0.0000 H       1  UNL1        0.0415
     26 H           6.8179   -1.4439    0.0000 H       1  UNL1        0.0241
     27 H           7.6648   -1.2170    0.0000 H       1  UNL1        0.0241
     28 H           7.4379   -0.3701    0.0000 H       1  UNL1        0.0241
     29 H           7.7052   -0.2163    0.0000 H       1  UNL1        0.0582
     30 H           2.6836   -2.4696    0.0000 H       1  UNL1        0.0238
     31 H           3.0803   -3.2516    0.0000 H       1  UNL1        0.0238
     32 H           3.8623   -2.8549    0.0000 H       1  UNL1        0.0238
     33 H           7.7180    1.4494    0.0000 H       1  UNL1        0.0653
     34 H           4.8118    2.1649    0.0000 H       1  UNL1        0.0279
     35 H           3.9676    1.9282    0.0000 H       1  UNL1        0.0279
     36 H           4.2043    1.0840    0.0000 H       1  UNL1        0.0279
@<TRIPOS>BOND
     1     1     5    1
     2     1    11    1
     3     2    11    2
     4     3    17    2
     5     4     5    1
     6     4     7    1
     7     4    10    1
     8     4    19    1
     9     5     8    1
    10     5    20    1
    11     6     8    1
    12     6     9    1
    13     6    12    1
    14     6    13    1
    15     7     9    1
    16     7    21    1
    17     7    22    1
    18     8    14    2
    19     9    23    1
    20     9    24    1
    21    10    11    1
    22    10    15    1
    23    10    25    1
    24    12    26    1
    25    12    27    1
    26    12    28    1
    27    13    16    2
    28    13    29    1
    29    14    17    1
    30    14    18    1
    31    15    30    1
    32    15    31    1
    33    15    32    1
    34    16    17    1
    35    16    33    1
    36    18    34    1
    37    18    35    1
    38    18    36    1
