@<TRIPOS>MOLECULE
IMPHY005893
 44 46 0 0 0
SMALL
GASTEIGER

@<TRIPOS>ATOM
      1 O           8.1301   -0.6154    0.0000 O.2     1  UNL1       -0.4507
      2 O           6.3817    2.4192    0.0000 O.3     1  UNL1       -0.5055
      3 O           4.6000   -0.6395    0.0000 O.3     1  UNL1       -0.5062
      4 O           9.8622    1.3846    0.0000 O.3     1  UNL1       -0.5007
      5 O           8.1301    2.3846    0.0000 O.2     1  UNL1       -0.2830
      6 O          12.4602   -2.1154    0.0000 O.3     1  UNL1       -0.5068
      7 C           5.4641    0.9054    0.0000 C.ar    1  UNL1        0.0400
      8 C           7.2641    0.8846    0.0000 C.ar    1  UNL1        0.1094
      9 C           7.2641   -0.1154    0.0000 C.ar    1  UNL1        0.1466
     10 C           6.3701    1.4193    0.0000 C.ar    1  UNL1        0.1382
     11 C           4.6000    1.4088    0.0000 C.3     1  UNL1       -0.0023
     12 C           5.4641   -0.1362    0.0000 C.ar    1  UNL1        0.1273
     13 C           6.3701   -0.6501    0.0000 C.ar    1  UNL1        0.0234
     14 C           8.1301    1.3846    0.0000 C.ar    1  UNL1        0.2379
     15 C           8.9961   -0.1154    0.0000 C.ar    1  UNL1        0.1806
     16 C           8.9961    0.8846    0.0000 C.ar    1  UNL1        0.2082
     17 C           3.7320    0.9121    0.0000 C.2     1  UNL1       -0.0807
     18 C           9.8622   -0.6154    0.0000 C.ar    1  UNL1        0.0213
     19 C           2.8680    1.4154    0.0000 C.2     1  UNL1       -0.0793
     20 C           9.8622   -1.6154    0.0000 C.ar    1  UNL1       -0.0475
     21 C          10.7282   -0.1154    0.0000 C.ar    1  UNL1       -0.0475
     22 C           2.0000    0.9188    0.0000 C.3     1  UNL1       -0.0440
     23 C           2.8718    2.4154    0.0000 C.3     1  UNL1       -0.0440
     24 C          10.7282   -2.1154    0.0000 C.ar    1  UNL1       -0.0195
     25 C          11.5942   -0.6154    0.0000 C.ar    1  UNL1       -0.0195
     26 C          11.5942   -1.6154    0.0000 C.ar    1  UNL1        0.1169
     27 H           5.0003    1.8822    0.0000 H       1  UNL1        0.0358
     28 H           4.2033    1.8852    0.0000 H       1  UNL1        0.0358
     29 H           6.3773   -1.2700    0.0000 H       1  UNL1        0.0691
     30 H           3.7296    0.2921    0.0000 H       1  UNL1        0.0575
     31 H           9.3252   -1.9254    0.0000 H       1  UNL1        0.0626
     32 H          10.7282    0.5046    0.0000 H       1  UNL1        0.0626
     33 H           5.8484    2.7354    0.0000 H       1  UNL1        0.2922
     34 H           4.6024   -1.2595    0.0000 H       1  UNL1        0.2921
     35 H           3.4918    2.4130    0.0000 H       1  UNL1        0.0274
     36 H           2.8742    3.0354    0.0000 H       1  UNL1        0.0274
     37 H           2.2518    2.4178    0.0000 H       1  UNL1        0.0274
     38 H           1.6921    1.4569    0.0000 H       1  UNL1        0.0274
     39 H           1.4619    0.6108    0.0000 H       1  UNL1        0.0274
     40 H           2.3079    0.3806    0.0000 H       1  UNL1        0.0274
     41 H          10.7282   -2.7354    0.0000 H       1  UNL1        0.0654
     42 H          12.1311   -0.3054    0.0000 H       1  UNL1        0.0654
     43 H           9.8622    2.0046    0.0000 H       1  UNL1        0.2924
     44 H          12.4602   -2.7354    0.0000 H       1  UNL1        0.2921
@<TRIPOS>BOND
     1     1     9   ar
     2     1    15   ar
     3     2    10    1
     4     2    33    1
     5     3    12    1
     6     3    34    1
     7     4    16    1
     8     4    43    1
     9     5    14    2
    10     6    26    1
    11     6    44    1
    12     7    10   ar
    13     7    11    1
    14     7    12   ar
    15     8     9   ar
    16     8    10   ar
    17     8    14   ar
    18     9    13   ar
    19    11    17    1
    20    11    27    1
    21    11    28    1
    22    12    13   ar
    23    13    29    1
    24    14    16   ar
    25    15    16   ar
    26    15    18    1
    27    17    19    2
    28    17    30    1
    29    18    20   ar
    30    18    21   ar
    31    19    22    1
    32    19    23    1
    33    20    24   ar
    34    20    31    1
    35    21    25   ar
    36    21    32    1
    37    22    38    1
    38    22    39    1
    39    22    40    1
    40    23    35    1
    41    23    36    1
    42    23    37    1
    43    24    26   ar
    44    24    41    1
    45    25    26   ar
    46    25    42    1
