@<TRIPOS>MOLECULE
IMPHY004916
 49 48 0 0 0
SMALL
GASTEIGER

@<TRIPOS>ATOM
      1 O           4.5981   -1.0950    0.0000 O.3     1  UNL1       -0.3918
      2 O          11.5263   -1.0950    0.0000 O.3     1  UNL1       -0.3918
      3 O          14.9904   -0.0950    0.0000 O.3     1  UNL1       -0.4806
      4 O          14.1244    1.4050    0.0000 O.2     1  UNL1       -0.2510
      5 C           8.0622   -0.0950    0.0000 C.3     1  UNL1       -0.0531
      6 C           7.1962    0.4050    0.0000 C.3     1  UNL1       -0.0530
      7 C           8.9282    0.4050    0.0000 C.3     1  UNL1       -0.0530
      8 C           6.3301   -0.0950    0.0000 C.3     1  UNL1       -0.0507
      9 C           9.7942   -0.0950    0.0000 C.3     1  UNL1       -0.0507
     10 C           5.4641    0.4050    0.0000 C.3     1  UNL1       -0.0269
     11 C          10.6603    0.4050    0.0000 C.3     1  UNL1       -0.0268
     12 C           4.5981   -0.0950    0.0000 C.3     1  UNL1        0.0552
     13 C          11.5263   -0.0950    0.0000 C.3     1  UNL1        0.0558
     14 C           3.7320    0.4050    0.0000 C.3     1  UNL1       -0.0271
     15 C          12.3923    0.4050    0.0000 C.3     1  UNL1       -0.0168
     16 C           2.8660   -0.0950    0.0000 C.3     1  UNL1       -0.0536
     17 C          13.2583   -0.0950    0.0000 C.3     1  UNL1        0.0471
     18 C           2.0000    0.4050    0.0000 C.3     1  UNL1       -0.0652
     19 C          14.1244    0.4050    0.0000 C.2     1  UNL1        0.3048
     20 H           7.6636   -0.5699    0.0000 H       1  UNL1        0.0265
     21 H           8.4607   -0.5699    0.0000 H       1  UNL1        0.0265
     22 H           7.5947    0.8799    0.0000 H       1  UNL1        0.0265
     23 H           6.7976    0.8799    0.0000 H       1  UNL1        0.0265
     24 H           9.3267    0.8799    0.0000 H       1  UNL1        0.0265
     25 H           8.5297    0.8799    0.0000 H       1  UNL1        0.0265
     26 H           5.9316   -0.5699    0.0000 H       1  UNL1        0.0266
     27 H           6.7287   -0.5699    0.0000 H       1  UNL1        0.0266
     28 H           9.3957   -0.5699    0.0000 H       1  UNL1        0.0266
     29 H          10.1928   -0.5699    0.0000 H       1  UNL1        0.0266
     30 H           5.8626    0.8799    0.0000 H       1  UNL1        0.0290
     31 H           5.0656    0.8799    0.0000 H       1  UNL1        0.0290
     32 H          11.0588    0.8799    0.0000 H       1  UNL1        0.0290
     33 H          10.2617    0.8799    0.0000 H       1  UNL1        0.0290
     34 H           5.3342   -0.5200    0.0000 H       1  UNL1        0.0593
     35 H          12.2624   -0.5200    0.0000 H       1  UNL1        0.0593
     36 H           4.1306    0.8799    0.0000 H       1  UNL1        0.0290
     37 H           3.3335    0.8799    0.0000 H       1  UNL1        0.0290
     38 H          12.7908    0.8799    0.0000 H       1  UNL1        0.0295
     39 H          11.9938    0.8799    0.0000 H       1  UNL1        0.0295
     40 H           2.4675   -0.5699    0.0000 H       1  UNL1        0.0263
     41 H           3.2646   -0.5699    0.0000 H       1  UNL1        0.0263
     42 H          12.8598   -0.5699    0.0000 H       1  UNL1        0.0378
     43 H          13.6569   -0.5699    0.0000 H       1  UNL1        0.0378
     44 H           4.0611   -1.4050    0.0000 H       1  UNL1        0.2098
     45 H          10.9893   -1.4050    0.0000 H       1  UNL1        0.2098
     46 H           2.3100    0.9419    0.0000 H       1  UNL1        0.0230
     47 H           1.4631    0.7150    0.0000 H       1  UNL1        0.0230
     48 H           1.6900   -0.1319    0.0000 H       1  UNL1        0.0230
     49 H          15.5273    0.2150    0.0000 H       1  UNL1        0.2951
@<TRIPOS>BOND
     1     1    12    1
     2     1    44    1
     3     2    13    1
     4     2    45    1
     5     3    19    1
     6     3    49    1
     7     4    19    2
     8     5     6    1
     9     5     7    1
    10     5    20    1
    11     5    21    1
    12     6     8    1
    13     6    22    1
    14     6    23    1
    15     7     9    1
    16     7    24    1
    17     7    25    1
    18     8    10    1
    19     8    26    1
    20     8    27    1
    21     9    11    1
    22     9    28    1
    23     9    29    1
    24    10    12    1
    25    10    30    1
    26    10    31    1
    27    11    13    1
    28    11    32    1
    29    11    33    1
    30    12    14    1
    31    12    34    1
    32    13    15    1
    33    13    35    1
    34    14    16    1
    35    14    36    1
    36    14    37    1
    37    15    17    1
    38    15    38    1
    39    15    39    1
    40    16    18    1
    41    16    40    1
    42    16    41    1
    43    17    19    1
    44    17    42    1
    45    17    43    1
    46    18    46    1
    47    18    47    1
    48    18    48    1
