@<TRIPOS>MOLECULE
IMPHY002632
 55 57 0 0 0
SMALL
GASTEIGER

@<TRIPOS>ATOM
      1 O           2.0000   -0.0879    0.0000 O.3     1  UNL1       -0.3648
      2 O           6.4106    2.2172    0.0000 O.3     1  UNL1       -0.4573
      3 O           4.5983   -0.5875    0.0000 O.3     1  UNL1       -0.4573
      4 O           2.8663    3.4125    0.0000 O.3     1  UNL1       -0.3913
      5 O           3.7326    0.3804    0.0000 O.3     1  UNL1       -0.3946
      6 O           7.9942    1.4125    0.0000 O.2     1  UNL1       -0.2453
      7 O           6.0983   -1.4535    0.0000 O.2     1  UNL1       -0.2453
      8 C           2.8663    0.4125    0.0000 C.3     1  UNL1        0.0967
      9 C           2.0003    0.9125    0.0000 C.3     1  UNL1        0.0906
     10 C           3.7323    0.9125    0.0000 C.3     1  UNL1        0.0164
     11 C           2.0003    1.9125    0.0000 C.3     1  UNL1        0.0026
     12 C           4.5983    0.4125    0.0000 C.3     1  UNL1        0.1164
     13 C           5.4644    0.9125    0.0000 C.3     1  UNL1        0.0645
     14 C           2.8663    2.4125    0.0000 C.3     1  UNL1        0.0627
     15 C           5.4644    1.9125    0.0000 C.3     1  UNL1        0.1141
     16 C           3.7323    1.9125    0.0000 C.3     1  UNL1        0.0116
     17 C           3.0399   -0.5723    0.0000 C.3     1  UNL1       -0.0332
     18 C           4.5983    2.4125    0.0000 C.3     1  UNL1       -0.0077
     19 C           6.4106    0.6078    0.0000 C.2     1  UNL1        0.0396
     20 C           3.0896    1.1464    0.0000 C.3     1  UNL1        0.0495
     21 C           6.9942    1.4125    0.0000 C.2     1  UNL1        0.3354
     22 C           7.1549   -0.0601    0.0000 C.2     1  UNL1       -0.0882
     23 C           5.0983   -1.4535    0.0000 C.2     1  UNL1        0.3348
     24 C           4.5983   -2.3195    0.0000 C.2     1  UNL1        0.0293
     25 C           3.5984   -2.3196    0.0000 C.3     1  UNL1       -0.0333
     26 C           5.0983   -3.1856    0.0000 C.2     1  UNL1       -0.0774
     27 C           6.0983   -3.1856    0.0000 C.3     1  UNL1       -0.0461
     28 H           1.1503    0.9126    0.0000 H       1  UNL1        0.0626
     29 H           4.1308    1.3874    0.0000 H       1  UNL1        0.0330
     30 H           3.3338    1.3874    0.0000 H       1  UNL1        0.0330
     31 H           1.7882    2.4951    0.0000 H       1  UNL1        0.0316
     32 H           1.3897    1.8048    0.0000 H       1  UNL1        0.0316
     33 H           4.0614    0.1025    0.0000 H       1  UNL1        0.0742
     34 H           5.5543    0.0673    0.0000 H       1  UNL1        0.0423
     35 H           3.4032    2.7225    0.0000 H       1  UNL1        0.0597
     36 H           5.5543    2.7577    0.0000 H       1  UNL1        0.0741
     37 H           4.1309    1.4376    0.0000 H       1  UNL1        0.0349
     38 H           2.4294   -0.6800    0.0000 H       1  UNL1        0.0258
     39 H           3.1476   -1.1829    0.0000 H       1  UNL1        0.0258
     40 H           3.6505   -0.4646    0.0000 H       1  UNL1        0.0258
     41 H           4.9969    2.8874    0.0000 H       1  UNL1        0.0305
     42 H           4.1998    2.8874    0.0000 H       1  UNL1        0.0305
     43 H           2.6386    1.5718    0.0000 H       1  UNL1        0.0561
     44 H           2.6387    0.7208    0.0000 H       1  UNL1        0.0561
     45 H           2.3293    3.7225    0.0000 H       1  UNL1        0.2098
     46 H           7.0270   -0.6667    0.0000 H       1  UNL1        0.0540
     47 H           7.7442    0.1325    0.0000 H       1  UNL1        0.0540
     48 H           3.5207   -0.2022    0.0000 H       1  UNL1        0.2094
     49 H           3.5984   -1.6996    0.0000 H       1  UNL1        0.0280
     50 H           2.9784   -2.3196    0.0000 H       1  UNL1        0.0280
     51 H           3.5984   -2.9396    0.0000 H       1  UNL1        0.0280
     52 H           4.7883   -3.7225    0.0000 H       1  UNL1        0.0574
     53 H           6.0983   -3.8056    0.0000 H       1  UNL1        0.0272
     54 H           6.7183   -3.1856    0.0000 H       1  UNL1        0.0272
     55 H           6.0983   -2.5656    0.0000 H       1  UNL1        0.0272
@<TRIPOS>BOND
     1     1     8    1
     2     1     9    1
     3     2    15    1
     4     2    21    1
     5    12     3    1
     6     3    23    1
     7    14     4    1
     8     4    45    1
     9     5    20    1
    10     5    48    1
    11     6    21    2
    12     7    23    2
    13     8     9    1
    14     8    10    1
    15     8    17    1
    16     9    11    1
    17     9    28    1
    18    10    12    1
    19    10    29    1
    20    10    30    1
    21    11    14    1
    22    11    31    1
    23    11    32    1
    24    12    13    1
    25    12    33    1
    26    13    15    1
    27    13    19    1
    28    13    34    1
    29    14    16    1
    30    14    35    1
    31    15    18    1
    32    15    36    1
    33    16    18    1
    34    16    20    1
    35    16    37    1
    36    17    38    1
    37    17    39    1
    38    17    40    1
    39    18    41    1
    40    18    42    1
    41    19    21    1
    42    19    22    2
    43    20    43    1
    44    20    44    1
    45    22    46    1
    46    22    47    1
    47    23    24    1
    48    24    25    1
    49    24    26    2
    50    25    49    1
    51    25    50    1
    52    25    51    1
    53    26    27    1
    54    26    52    1
    55    27    53    1
    56    27    54    1
    57    27    55    1
