@<TRIPOS>MOLECULE
IMPHY013862
 20 19 0 0 0
SMALL
GASTEIGER

@<TRIPOS>ATOM
      1 O           2.5369    0.2500    0.0000 O.3     1  UNL1       -0.3910
      2 C           7.7331    0.2500    0.0000 C.3     1  UNL1       -0.0373
      3 C           6.8671   -0.2500    0.0000 C.2     1  UNL1       -0.0843
      4 C           8.5991   -0.2500    0.0000 C.3     1  UNL1       -0.0618
      5 C           6.0010    0.2500    0.0000 C.2     1  UNL1       -0.0659
      6 C           5.1350   -0.2500    0.0000 C.2     1  UNL1       -0.0638
      7 C           4.2690    0.2500    0.0000 C.2     1  UNL1       -0.0590
      8 C           3.4030   -0.2500    0.0000 C.3     1  UNL1        0.0627
      9 H           8.1316    0.7249    0.0000 H       1  UNL1        0.0305
     10 H           7.3346    0.7249    0.0000 H       1  UNL1        0.0305
     11 H           6.8671   -0.8700    0.0000 H       1  UNL1        0.0572
     12 H           8.2891   -0.7869    0.0000 H       1  UNL1        0.0233
     13 H           9.1360   -0.5600    0.0000 H       1  UNL1        0.0233
     14 H           8.9091    0.2869    0.0000 H       1  UNL1        0.0233
     15 H           6.0010    0.8700    0.0000 H       1  UNL1        0.0614
     16 H           5.1350   -0.8700    0.0000 H       1  UNL1        0.0615
     17 H           4.2690    0.8700    0.0000 H       1  UNL1        0.0595
     18 H           3.0044   -0.7249    0.0000 H       1  UNL1        0.0601
     19 H           3.8015   -0.7249    0.0000 H       1  UNL1        0.0601
     20 H           2.0000   -0.0600    0.0000 H       1  UNL1        0.2098
@<TRIPOS>BOND
     1     1     8    1
     2     1    20    1
     3     2     3    1
     4     2     4    1
     5     2     9    1
     6     2    10    1
     7     3     5    2
     8     3    11    1
     9     4    12    1
    10     4    13    1
    11     4    14    1
    12     5     6    1
    13     5    15    1
    14     6     7    2
    15     6    16    1
    16     7     8    1
    17     7    17    1
    18     8    18    1
    19     8    19    1
