@<TRIPOS>MOLECULE
IMPHY013199
 87 86 0 0 0
SMALL
GASTEIGER

@<TRIPOS>ATOM
      1 C          10.6603   -2.4400    0.0000 C.3     1  UNL1       -0.0531
      2 C           9.7942   -2.9400    0.0000 C.3     1  UNL1       -0.0531
      3 C          11.5263   -2.9400    0.0000 C.3     1  UNL1       -0.0531
      4 C           8.9282   -2.4400    0.0000 C.3     1  UNL1       -0.0531
      5 C          12.3923   -2.4400    0.0000 C.3     1  UNL1       -0.0531
      6 C           8.0622   -2.9400    0.0000 C.3     1  UNL1       -0.0531
      7 C          13.2583   -2.9400    0.0000 C.3     1  UNL1       -0.0531
      8 C           7.1962   -2.4400    0.0000 C.3     1  UNL1       -0.0531
      9 C          14.1244   -2.4400    0.0000 C.3     1  UNL1       -0.0531
     10 C           6.3301   -2.9400    0.0000 C.3     1  UNL1       -0.0531
     11 C          14.9904   -2.9400    0.0000 C.3     1  UNL1       -0.0530
     12 C           5.4641   -2.4400    0.0000 C.3     1  UNL1       -0.0531
     13 C          15.8564   -2.4400    0.0000 C.3     1  UNL1       -0.0528
     14 C           4.5981   -2.9400    0.0000 C.3     1  UNL1       -0.0531
     15 C          16.7224   -2.9400    0.0000 C.3     1  UNL1       -0.0496
     16 C           3.7320   -2.4400    0.0000 C.3     1  UNL1       -0.0533
     17 C          17.5885   -2.4400    0.0000 C.3     1  UNL1       -0.0348
     18 C          20.1865    0.0600    0.0000 C.3     1  UNL1       -0.0528
     19 C          21.0526    0.5600    0.0000 C.3     1  UNL1       -0.0530
     20 C           2.8660   -2.9400    0.0000 C.3     1  UNL1       -0.0559
     21 C          20.1865   -0.9400    0.0000 C.3     1  UNL1       -0.0496
     22 C          21.0526    1.5600    0.0000 C.3     1  UNL1       -0.0531
     23 C          19.3205   -1.4400    0.0000 C.3     1  UNL1       -0.0348
     24 C          21.9186    2.0600    0.0000 C.3     1  UNL1       -0.0533
     25 C          18.4545   -2.9400    0.0000 C.2     1  UNL1       -0.0879
     26 C          19.3205   -2.4400    0.0000 C.2     1  UNL1       -0.0879
     27 C          21.9186    3.0600    0.0000 C.3     1  UNL1       -0.0559
     28 C           2.0000   -2.4400    0.0000 C.3     1  UNL1       -0.0653
     29 C          22.7846    3.5600    0.0000 C.3     1  UNL1       -0.0653
     30 H          11.0588   -1.9650    0.0000 H       1  UNL1        0.0265
     31 H          10.2617   -1.9650    0.0000 H       1  UNL1        0.0265
     32 H           9.3957   -3.4150    0.0000 H       1  UNL1        0.0265
     33 H          10.1928   -3.4150    0.0000 H       1  UNL1        0.0265
     34 H          11.1278   -3.4150    0.0000 H       1  UNL1        0.0265
     35 H          11.9248   -3.4150    0.0000 H       1  UNL1        0.0265
     36 H           9.3267   -1.9650    0.0000 H       1  UNL1        0.0265
     37 H           8.5297   -1.9650    0.0000 H       1  UNL1        0.0265
     38 H          12.7908   -1.9650    0.0000 H       1  UNL1        0.0265
     39 H          11.9938   -1.9650    0.0000 H       1  UNL1        0.0265
     40 H           7.6636   -3.4150    0.0000 H       1  UNL1        0.0265
     41 H           8.4607   -3.4150    0.0000 H       1  UNL1        0.0265
     42 H          12.8598   -3.4150    0.0000 H       1  UNL1        0.0265
     43 H          13.6569   -3.4150    0.0000 H       1  UNL1        0.0265
     44 H           7.5947   -1.9650    0.0000 H       1  UNL1        0.0265
     45 H           6.7976   -1.9650    0.0000 H       1  UNL1        0.0265
     46 H          14.5229   -1.9650    0.0000 H       1  UNL1        0.0265
     47 H          13.7258   -1.9650    0.0000 H       1  UNL1        0.0265
     48 H           5.9316   -3.4150    0.0000 H       1  UNL1        0.0265
     49 H           6.7287   -3.4150    0.0000 H       1  UNL1        0.0265
     50 H          14.5919   -3.4150    0.0000 H       1  UNL1        0.0265
     51 H          15.3889   -3.4150    0.0000 H       1  UNL1        0.0265
     52 H           5.8626   -1.9650    0.0000 H       1  UNL1        0.0265
     53 H           5.0656   -1.9650    0.0000 H       1  UNL1        0.0265
     54 H          16.2549   -1.9650    0.0000 H       1  UNL1        0.0265
     55 H          15.4579   -1.9650    0.0000 H       1  UNL1        0.0265
     56 H           4.1996   -3.4150    0.0000 H       1  UNL1        0.0265
     57 H           4.9966   -3.4150    0.0000 H       1  UNL1        0.0265
     58 H          16.3239   -3.4150    0.0000 H       1  UNL1        0.0268
     59 H          17.1210   -3.4150    0.0000 H       1  UNL1        0.0268
     60 H           4.1306   -1.9650    0.0000 H       1  UNL1        0.0265
     61 H           3.3335   -1.9650    0.0000 H       1  UNL1        0.0265
     62 H          17.9870   -1.9650    0.0000 H       1  UNL1        0.0307
     63 H          17.1899   -1.9650    0.0000 H       1  UNL1        0.0307
     64 H          19.9745    0.6426    0.0000 H       1  UNL1        0.0265
     65 H          19.5760   -0.0477    0.0000 H       1  UNL1        0.0265
     66 H          21.2646   -0.0226    0.0000 H       1  UNL1        0.0265
     67 H          21.6631    0.6677    0.0000 H       1  UNL1        0.0265
     68 H          20.3986   -1.5226    0.0000 H       1  UNL1        0.0268
     69 H          20.7971   -0.8323    0.0000 H       1  UNL1        0.0268
     70 H           2.4675   -3.4150    0.0000 H       1  UNL1        0.0263
     71 H           3.2646   -3.4150    0.0000 H       1  UNL1        0.0263
     72 H          20.8405    2.1426    0.0000 H       1  UNL1        0.0265
     73 H          20.4420    1.4523    0.0000 H       1  UNL1        0.0265
     74 H          19.1085   -0.8574    0.0000 H       1  UNL1        0.0307
     75 H          18.7099   -1.5477    0.0000 H       1  UNL1        0.0307
     76 H          22.1306    1.4774    0.0000 H       1  UNL1        0.0265
     77 H          22.5292    2.1677    0.0000 H       1  UNL1        0.0265
     78 H          18.4545   -3.5600    0.0000 H       1  UNL1        0.0569
     79 H          19.8574   -2.7500    0.0000 H       1  UNL1        0.0569
     80 H          21.7065    3.6426    0.0000 H       1  UNL1        0.0263
     81 H          21.3080    2.9523    0.0000 H       1  UNL1        0.0263
     82 H           2.3100   -1.9031    0.0000 H       1  UNL1        0.0230
     83 H           1.4631   -2.1300    0.0000 H       1  UNL1        0.0230
     84 H           1.6900   -2.9769    0.0000 H       1  UNL1        0.0230
     85 H          23.0946    3.0231    0.0000 H       1  UNL1        0.0230
     86 H          23.3215    3.8700    0.0000 H       1  UNL1        0.0230
     87 H          22.4746    4.0969    0.0000 H       1  UNL1        0.0230
@<TRIPOS>BOND
     1     1     2    1
     2     1     3    1
     3     1    30    1
     4     1    31    1
     5     2     4    1
     6     2    32    1
     7     2    33    1
     8     3     5    1
     9     3    34    1
    10     3    35    1
    11     4     6    1
    12     4    36    1
    13     4    37    1
    14     5     7    1
    15     5    38    1
    16     5    39    1
    17     6     8    1
    18     6    40    1
    19     6    41    1
    20     7     9    1
    21     7    42    1
    22     7    43    1
    23     8    10    1
    24     8    44    1
    25     8    45    1
    26     9    11    1
    27     9    46    1
    28     9    47    1
    29    10    12    1
    30    10    48    1
    31    10    49    1
    32    11    13    1
    33    11    50    1
    34    11    51    1
    35    12    14    1
    36    12    52    1
    37    12    53    1
    38    13    15    1
    39    13    54    1
    40    13    55    1
    41    14    16    1
    42    14    56    1
    43    14    57    1
    44    15    17    1
    45    15    58    1
    46    15    59    1
    47    16    20    1
    48    16    60    1
    49    16    61    1
    50    17    25    1
    51    17    62    1
    52    17    63    1
    53    18    19    1
    54    18    21    1
    55    18    64    1
    56    18    65    1
    57    19    22    1
    58    19    66    1
    59    19    67    1
    60    20    28    1
    61    20    70    1
    62    20    71    1
    63    21    23    1
    64    21    68    1
    65    21    69    1
    66    22    24    1
    67    22    72    1
    68    22    73    1
    69    23    26    1
    70    23    74    1
    71    23    75    1
    72    24    27    1
    73    24    76    1
    74    24    77    1
    75    25    26    2
    76    25    78    1
    77    26    79    1
    78    27    29    1
    79    27    80    1
    80    27    81    1
    81    28    82    1
    82    28    83    1
    83    28    84    1
    84    29    85    1
    85    29    86    1
    86    29    87    1
