@<TRIPOS>MOLECULE
IMPHY015823
 21 20 0 0 0
SMALL
GASTEIGER

@<TRIPOS>ATOM
      1 O           2.5369   -0.2500    0.0000 O.3     1  UNL1       -0.3913
      2 O           6.0010   -0.2500    0.0000 O.3     1  UNL1       -0.4677
      3 O           5.1350    1.2500    0.0000 O.2     1  UNL1       -0.2505
      4 C           4.2690   -0.2500    0.0000 C.3     1  UNL1        0.0792
      5 C           3.4030    0.2500    0.0000 C.3     1  UNL1        0.0651
      6 C           4.2690   -1.2500    0.0000 C.3     1  UNL1       -0.0499
      7 C           3.4030    1.2500    0.0000 C.3     1  UNL1       -0.0382
      8 C           5.1350    0.2500    0.0000 C.2     1  UNL1        0.3122
      9 C           6.8671    0.2500    0.0000 C.3     1  UNL1        0.0817
     10 H           4.8059   -0.5600    0.0000 H       1  UNL1        0.0436
     11 H           3.4030   -0.3700    0.0000 H       1  UNL1        0.0598
     12 H           3.6490   -1.2500    0.0000 H       1  UNL1        0.0238
     13 H           4.2690   -1.8700    0.0000 H       1  UNL1        0.0238
     14 H           4.8890   -1.2500    0.0000 H       1  UNL1        0.0238
     15 H           4.0230    1.2500    0.0000 H       1  UNL1        0.0255
     16 H           3.4030    1.8700    0.0000 H       1  UNL1        0.0255
     17 H           2.7830    1.2500    0.0000 H       1  UNL1        0.0255
     18 H           2.0000    0.0600    0.0000 H       1  UNL1        0.2098
     19 H           7.1771   -0.2869    0.0000 H       1  UNL1        0.0661
     20 H           7.4040    0.5600    0.0000 H       1  UNL1        0.0661
     21 H           6.5571    0.7869    0.0000 H       1  UNL1        0.0661
@<TRIPOS>BOND
     1     1     5    1
     2     1    18    1
     3     2     8    1
     4     2     9    1
     5     3     8    2
     6     4     5    1
     7     4     6    1
     8     4     8    1
     9     4    10    1
    10     5     7    1
    11     5    11    1
    12     6    12    1
    13     6    13    1
    14     6    14    1
    15     7    15    1
    16     7    16    1
    17     7    17    1
    18     9    19    1
    19     9    20    1
    20     9    21    1
