@<TRIPOS>MOLECULE
IMPHY016615
 23 22 0 0 0
SMALL
GASTEIGER

@<TRIPOS>ATOM
      1 O           7.1962    0.7500    0.0000 O.3     1  UNL1       -0.4645
      2 O           3.7320    0.7500    0.0000 O.3     1  UNL1       -0.4645
      3 O           6.3301   -0.7500    0.0000 O.2     1  UNL1       -0.2502
      4 O           4.5981   -0.7500    0.0000 O.2     1  UNL1       -0.2502
      5 C           5.4641    0.7500    0.0000 C.3     1  UNL1        0.1419
      6 C           8.0622    0.2500    0.0000 C.3     1  UNL1        0.0897
      7 C           2.8660    0.2500    0.0000 C.3     1  UNL1        0.0897
      8 C           6.3301    0.2500    0.0000 C.2     1  UNL1        0.3179
      9 C           4.5981    0.2500    0.0000 C.2     1  UNL1        0.3179
     10 C           8.9282    0.7500    0.0000 C.3     1  UNL1       -0.0306
     11 C           2.0000    0.7500    0.0000 C.3     1  UNL1       -0.0306
     12 H           5.8626    1.2250    0.0000 H       1  UNL1        0.0493
     13 H           5.0656    1.2250    0.0000 H       1  UNL1        0.0493
     14 H           7.6636   -0.2249    0.0000 H       1  UNL1        0.0694
     15 H           8.4607   -0.2249    0.0000 H       1  UNL1        0.0694
     16 H           2.4675   -0.2249    0.0000 H       1  UNL1        0.0694
     17 H           3.2646   -0.2249    0.0000 H       1  UNL1        0.0694
     18 H           9.2382    0.2131    0.0000 H       1  UNL1        0.0262
     19 H           9.4651    1.0600    0.0000 H       1  UNL1        0.0262
     20 H           8.6182    1.2869    0.0000 H       1  UNL1        0.0262
     21 H           2.3100    1.2869    0.0000 H       1  UNL1        0.0262
     22 H           1.4631    1.0600    0.0000 H       1  UNL1        0.0262
     23 H           1.6900    0.2131    0.0000 H       1  UNL1        0.0262
@<TRIPOS>BOND
     1     1     6    1
     2     1     8    1
     3     2     7    1
     4     2     9    1
     5     3     8    2
     6     4     9    2
     7     5     8    1
     8     5     9    1
     9     5    12    1
    10     5    13    1
    11     6    10    1
    12     6    14    1
    13     6    15    1
    14     7    11    1
    15     7    16    1
    16     7    17    1
    17    10    18    1
    18    10    19    1
    19    10    20    1
    20    11    21    1
    21    11    22    1
    22    11    23    1
