@<TRIPOS>MOLECULE
IMPHY009121
 30 31 0 0 0
SMALL
GASTEIGER

@<TRIPOS>ATOM
      1 O           2.0000   -1.0950    0.0000 O.2     1  UNL1       -0.4704
      2 O           2.8660   -2.5950    0.0000 O.3     1  UNL1       -0.3575
      3 O           4.9889    1.1602    0.0000 O.2     1  UNL1       -0.2967
      4 O           2.0000    1.9050    0.0000 O.3     1  UNL1       -0.4646
      5 O           3.7320    1.9050    0.0000 O.2     1  UNL1       -0.2452
      6 C           3.7320   -1.0950    0.0000 C.3     1  UNL1        0.0382
      7 C           4.6783   -1.3997    0.0000 C.3     1  UNL1       -0.0277
      8 C           3.7320   -0.0950    0.0000 C.3     1  UNL1        0.0609
      9 C           5.2619   -0.5950    0.0000 C.3     1  UNL1        0.0095
     10 C           4.6783    0.2097    0.0000 C.2     1  UNL1        0.1418
     11 C           2.8660   -1.5950    0.0000 C.3     1  UNL1        0.2025
     12 C           2.8660    0.4050    0.0000 C.2     1  UNL1        0.0814
     13 C           4.9889   -2.3502    0.0000 C.3     1  UNL1       -0.0616
     14 C           2.0000   -0.0950    0.0000 C.2     1  UNL1        0.0985
     15 C           2.8660    1.4050    0.0000 C.2     1  UNL1        0.3385
     16 C           2.0000    2.9050    0.0000 C.3     1  UNL1        0.0820
     17 H           3.8220   -1.9402    0.0000 H       1  UNL1        0.0374
     18 H           5.2908   -1.4959    0.0000 H       1  UNL1        0.0307
     19 H           3.8220    0.7502    0.0000 H       1  UNL1        0.0434
     20 H           5.7227   -1.0097    0.0000 H       1  UNL1        0.0344
     21 H           5.7227   -0.1803    0.0000 H       1  UNL1        0.0344
     22 H           3.4030   -1.9050    0.0000 H       1  UNL1        0.1057
     23 H           4.3996   -2.5429    0.0000 H       1  UNL1        0.0233
     24 H           5.1815   -2.9396    0.0000 H       1  UNL1        0.0233
     25 H           5.5783   -2.1576    0.0000 H       1  UNL1        0.0233
     26 H           1.4631    0.2150    0.0000 H       1  UNL1        0.1029
     27 H           2.3291   -2.9050    0.0000 H       1  UNL1        0.2135
     28 H           2.6200    2.9050    0.0000 H       1  UNL1        0.0661
     29 H           2.0000    3.5250    0.0000 H       1  UNL1        0.0661
     30 H           1.3800    2.9050    0.0000 H       1  UNL1        0.0661
@<TRIPOS>BOND
     1     1    11    1
     2     1    14    1
     3    11     2    1
     4     2    27    1
     5     3    10    2
     6     4    15    1
     7     4    16    1
     8     5    15    2
     9     6     7    1
    10     6     8    1
    11     6    11    1
    12     6    17    1
    13     7     9    1
    14     7    13    1
    15     7    18    1
    16     8    10    1
    17     8    12    1
    18     8    19    1
    19     9    10    1
    20     9    20    1
    21     9    21    1
    22    11    22    1
    23    12    14    2
    24    12    15    1
    25    13    23    1
    26    13    24    1
    27    13    25    1
    28    14    26    1
    29    16    28    1
    30    16    29    1
    31    16    30    1
