@<TRIPOS>MOLECULE
IMPHY017915
 23 24 0 0 0
SMALL
GASTEIGER

@<TRIPOS>ATOM
      1 CL          4.7390    0.0000    0.0000 Cl      1  UNL1       -0.0822
      2 S           4.7390   -6.0369    0.0000 S.O2    1  UNL1        0.1076
      3 S           3.4260   -8.3008    0.0000 S.3     1  UNL1        0.0917
      4 O           2.1129   -7.5462    0.0000 O.3     1  UNL1       -0.2837
      5 O           3.2147   -6.0369    0.0000 O.2     1  UNL1       -0.1457
      6 O           6.2482   -6.0369    0.0000 O.2     1  UNL1       -0.1457
      7 O           2.1129  -15.0924    0.0000 O.co2   1  UNL1       -0.5760
      8 O           4.7390  -15.0924    0.0000 O.2     1  UNL1        0.0415
      9 N           4.7390   -7.5462    0.0000 N.2     1  UNL1       -0.0740
     10 N           3.4260  -14.3377    0.0000 N.pl3   1  UNL1        0.0809
     11 C           4.7390   -4.5277    0.0000 C.ar    1  UNL1        0.1298
     12 C           3.4260   -9.8100    0.0000 C.ar    1  UNL1        0.0641
     13 C           3.4260   -3.7731    0.0000 C.ar    1  UNL1        0.0213
     14 C           6.0369   -3.7731    0.0000 C.ar    1  UNL1        0.0213
     15 C           2.1129  -10.5647    0.0000 C.ar    1  UNL1        0.0156
     16 C           4.7390  -10.5647    0.0000 C.ar    1  UNL1        0.0156
     17 C           3.4260  -12.8285    0.0000 C.ar    1  UNL1        0.2901
     18 C           2.1129  -12.0739    0.0000 C.ar    1  UNL1        0.0759
     19 C           4.7390  -12.0739    0.0000 C.ar    1  UNL1        0.0759
     20 C           3.4260   -2.2639    0.0000 C.ar    1  UNL1        0.0128
     21 C           6.0369   -2.2639    0.0000 C.ar    1  UNL1        0.0128
     22 C           4.7390   -1.5092    0.0000 C.ar    1  UNL1        0.0578
     23 C           0.8150   -8.3008    0.0000 C.3     1  UNL1        0.1927
@<TRIPOS>UNITY_ATOM_ATTR
7 1
charge -1
10 1
charge 1
@<TRIPOS>BOND
     1     1    22    1
     2     2     5    2
     3     2     6    2
     4     2     9    1
     5     2    11    1
     6     3     4    1
     7     3     9    2
     8     3    12    1
     9     4    23    1
    10     7    10    1
    11     8    10    2
    12    10    17    1
    13    11    13   ar
    14    11    14   ar
    15    12    15   ar
    16    12    16   ar
    17    13    20   ar
    18    14    21   ar
    19    15    18   ar
    20    16    19   ar
    21    17    18   ar
    22    17    19   ar
    23    20    22   ar
    24    21    22   ar
