@<TRIPOS>MOLECULE
IMPHY010499
 102 107 0 0 0
SMALL
GASTEIGER

@<TRIPOS>ATOM
      1 O           9.9650   -0.1400    0.0000 O.3     1  UNL1       -0.3585
      2 O           7.8363    1.8518    0.0000 O.3     1  UNL1       -0.4581
      3 O           9.5407   -2.2352    0.0000 O.3     1  UNL1       -0.3888
      4 O          11.2842   -1.2553    0.0000 O.3     1  UNL1       -0.3858
      5 O          10.5045    2.2619    0.0000 O.3     1  UNL1       -0.4464
      6 O          11.9455    1.1032    0.0000 O.3     1  UNL1       -0.4659
      7 O          11.9255   -0.6287    0.0000 O.2     1  UNL1       -0.2475
      8 O           8.7754    3.3428    0.0000 O.2     1  UNL1       -0.2466
      9 O           6.8671   -3.8806    0.0000 O.2     1  UNL1       -0.4576
     10 O           5.0597   -2.8278    0.0000 O.2     1  UNL1       -0.2885
     11 O           9.6975    3.7945    0.0000 O.2     1  UNL1       -0.2456
     12 O           5.1350   -3.8806    0.0000 O.3     1  UNL1       -0.3313
     13 O           6.8671   -5.8806    0.0000 O.3     1  UNL1       -0.3829
     14 O           5.1350   -6.8806    0.0000 O.3     1  UNL1       -0.3864
     15 O           3.4030   -5.8806    0.0000 O.3     1  UNL1       -0.3865
     16 O          13.2369    5.6580    0.0000 O.3     1  UNL1       -0.4544
     17 O           2.5369   -4.3806    0.0000 O.3     1  UNL1       -0.3924
     18 O          12.4300    7.1906    0.0000 O.2     1  UNL1       -0.2511
     19 C           8.7037    0.2746    0.0000 C.3     1  UNL1        0.0471
     20 C           8.6921   -0.7253    0.0000 C.3     1  UNL1        0.0084
     21 C           9.5754    0.7646    0.0000 C.3     1  UNL1        0.0603
     22 C           7.7920   -1.2496    0.0000 C.3     1  UNL1       -0.0007
     23 C           7.8160    0.8196    0.0000 C.3     1  UNL1        0.1120
     24 C          10.4356    0.2546    0.0000 C.3     1  UNL1        0.2007
     25 C           6.8920   -0.7253    0.0000 C.3     1  UNL1       -0.0187
     26 C           9.5523   -1.2353    0.0000 C.3     1  UNL1        0.0886
     27 C           9.1651   -0.1307    0.0000 C.3     1  UNL1        0.0591
     28 C          10.4241   -0.7453    0.0000 C.3     1  UNL1        0.1210
     29 C           6.9040    0.3162    0.0000 C.3     1  UNL1       -0.0108
     30 C           9.6196    1.7960    0.0000 C.3     1  UNL1        0.2059
     31 C           5.9421   -1.2496    0.0000 C.3     1  UNL1        0.0261
     32 C           8.4319   -2.0181    0.0000 C.3     1  UNL1       -0.0553
     33 C           7.8046   -2.3345    0.0000 C.2     1  UNL1       -0.0321
     34 C          11.4355    0.2430    0.0000 C.2     1  UNL1        0.3423
     35 C           8.7442    2.3433    0.0000 C.2     1  UNL1        0.3491
     36 C           5.9295   -2.3345    0.0000 C.2     1  UNL1        0.2002
     37 C           6.8671   -2.8806    0.0000 C.2     1  UNL1        0.1631
     38 C           5.0839   -0.7363    0.0000 C.3     1  UNL1       -0.0550
     39 C          10.5434    3.2612    0.0000 C.2     1  UNL1        0.3328
     40 C          12.9455    1.0916    0.0000 C.3     1  UNL1        0.0818
     41 C           6.0010   -4.3806    0.0000 C.3     1  UNL1        0.2309
     42 C          11.4283    3.7270    0.0000 C.2     1  UNL1        0.0252
     43 C           6.0010   -5.3806    0.0000 C.3     1  UNL1        0.1454
     44 C           5.1350   -5.8806    0.0000 C.3     1  UNL1        0.1152
     45 C           4.2690   -4.3806    0.0000 C.3     1  UNL1        0.1140
     46 C          11.4672    4.7263    0.0000 C.2     1  UNL1       -0.0234
     47 C           4.2690   -5.3806    0.0000 C.3     1  UNL1        0.1120
     48 C          12.3521    5.1922    0.0000 C.3     1  UNL1        0.1292
     49 C           3.4030   -3.8806    0.0000 C.3     1  UNL1        0.0731
     50 C          10.6213    5.2596    0.0000 C.3     1  UNL1       -0.0396
     51 C          11.8862    6.0770    0.0000 C.3     1  UNL1       -0.0211
     52 C          12.8180    4.3073    0.0000 C.3     1  UNL1       -0.0211
     53 C          13.2759    6.6573    0.0000 C.2     1  UNL1        0.3048
     54 C          14.1607    7.1232    0.0000 C.3     1  UNL1        0.0333
     55 H           8.6823   -1.5753    0.0000 H       1  UNL1        0.0342
     56 H           9.1590    1.5056    0.0000 H       1  UNL1        0.0384
     57 H           7.0883    1.2588    0.0000 H       1  UNL1        0.0740
     58 H           6.1625   -0.2890    0.0000 H       1  UNL1        0.0317
     59 H          10.0856   -1.5515    0.0000 H       1  UNL1        0.0623
     60 H           8.6407   -0.4615    0.0000 H       1  UNL1        0.0567
     61 H           9.3338   -0.7274    0.0000 H       1  UNL1        0.0567
     62 H          10.9645   -0.4416    0.0000 H       1  UNL1        0.0654
     63 H           6.7017    0.9023    0.0000 H       1  UNL1        0.0304
     64 H           6.2920    0.2172    0.0000 H       1  UNL1        0.0304
     65 H           9.6426    2.4156    0.0000 H       1  UNL1        0.0857
     66 H           5.4010   -1.5523    0.0000 H       1  UNL1        0.0382
     67 H           7.9554   -2.4148    0.0000 H       1  UNL1        0.0238
     68 H           8.8286   -2.4946    0.0000 H       1  UNL1        0.0238
     69 H           8.9084   -1.6214    0.0000 H       1  UNL1        0.0238
     70 H           8.3439   -2.6404    0.0000 H       1  UNL1        0.0615
     71 H          10.0741   -2.5514    0.0000 H       1  UNL1        0.2099
     72 H          11.2771   -1.8753    0.0000 H       1  UNL1        0.2100
     73 H           5.4021   -0.2042    0.0000 H       1  UNL1        0.0237
     74 H           4.5518   -0.4181    0.0000 H       1  UNL1        0.0237
     75 H           4.7656   -1.2684    0.0000 H       1  UNL1        0.0237
     76 H          12.9383    0.4717    0.0000 H       1  UNL1        0.0661
     77 H          13.5654    1.0845    0.0000 H       1  UNL1        0.0661
     78 H          12.9526    1.7116    0.0000 H       1  UNL1        0.0661
     79 H           6.0010   -3.7606    0.0000 H       1  UNL1        0.1084
     80 H          11.9527    3.3964    0.0000 H       1  UNL1        0.0689
     81 H           6.0010   -6.0006    0.0000 H       1  UNL1        0.0683
     82 H           4.5981   -6.1906    0.0000 H       1  UNL1        0.0648
     83 H           4.2690   -3.7606    0.0000 H       1  UNL1        0.0647
     84 H           3.7320   -5.0706    0.0000 H       1  UNL1        0.0647
     85 H           6.8671   -6.5006    0.0000 H       1  UNL1        0.2102
     86 H           3.8015   -3.4057    0.0000 H       1  UNL1        0.0584
     87 H           3.0044   -3.4057    0.0000 H       1  UNL1        0.0584
     88 H          10.9520    5.7841    0.0000 H       1  UNL1        0.0276
     89 H          10.0969    5.5903    0.0000 H       1  UNL1        0.0276
     90 H          10.2906    4.7352    0.0000 H       1  UNL1        0.0276
     91 H           4.5981   -7.1906    0.0000 H       1  UNL1        0.2100
     92 H           3.4030   -6.5006    0.0000 H       1  UNL1        0.2100
     93 H          12.2693    4.0185    0.0000 H       1  UNL1        0.0271
     94 H          12.4348    6.3659    0.0000 H       1  UNL1        0.0271
     95 H          11.5973    6.6256    0.0000 H       1  UNL1        0.0271
     96 H          11.3376    5.7882    0.0000 H       1  UNL1        0.0271
     97 H          13.1068    3.7587    0.0000 H       1  UNL1        0.0271
     98 H          13.3666    4.5962    0.0000 H       1  UNL1        0.0271
     99 H           2.0000   -4.0706    0.0000 H       1  UNL1        0.2095
    100 H          14.4496    6.5746    0.0000 H       1  UNL1        0.0342
    101 H          14.7093    7.4120    0.0000 H       1  UNL1        0.0342
    102 H          13.8719    7.6718    0.0000 H       1  UNL1        0.0342
@<TRIPOS>BOND
     1     1    24    1
     2     1    27    1
     3     2    23    1
     4     2    35    1
     5    26     3    1
     6     3    71    1
     7    28     4    1
     8     4    72    1
     9    30     5    1
    10     5    39    1
    11     6    34    1
    12     6    40    1
    13     7    34    2
    14     8    35    2
    15     9    37    1
    16    41     9    1
    17    10    36    2
    18    11    39    2
    19    12    41    1
    20    12    45    1
    21    43    13    1
    22    13    85    1
    23    44    14    1
    24    14    91    1
    25    47    15    1
    26    15    92    1
    27    16    48    1
    28    16    53    1
    29    17    49    1
    30    17    99    1
    31    18    53    2
    32    19    20    1
    33    19    21    1
    34    19    23    1
    35    19    27    1
    36    20    22    1
    37    20    26    1
    38    20    55    1
    39    21    24    1
    40    21    30    1
    41    21    56    1
    42    22    25    1
    43    22    32    1
    44    22    33    1
    45    23    29    1
    46    23    57    1
    47    24    28    1
    48    24    34    1
    49    25    29    1
    50    25    31    1
    51    25    58    1
    52    26    28    1
    53    26    59    1
    54    27    60    1
    55    27    61    1
    56    28    62    1
    57    29    63    1
    58    29    64    1
    59    30    35    1
    60    30    65    1
    61    31    36    1
    62    31    38    1
    63    31    66    1
    64    32    67    1
    65    32    68    1
    66    32    69    1
    67    33    37    2
    68    33    70    1
    69    36    37    1
    70    38    73    1
    71    38    74    1
    72    38    75    1
    73    39    42    1
    74    40    76    1
    75    40    77    1
    76    40    78    1
    77    41    43    1
    78    41    79    1
    79    42    46    2
    80    42    80    1
    81    43    44    1
    82    43    81    1
    83    44    47    1
    84    44    82    1
    85    45    47    1
    86    45    49    1
    87    45    83    1
    88    46    48    1
    89    46    50    1
    90    47    84    1
    91    48    51    1
    92    48    52    1
    93    49    86    1
    94    49    87    1
    95    50    88    1
    96    50    89    1
    97    50    90    1
    98    51    94    1
    99    51    95    1
   100    51    96    1
   101    52    93    1
   102    52    97    1
   103    52    98    1
   104    53    54    1
   105    54   100    1
   106    54   101    1
   107    54   102    1
