@<TRIPOS>MOLECULE
IMPHY013599
 74 80 0 0 0
SMALL
GASTEIGER

@<TRIPOS>ATOM
      1 O           2.0000    2.6771    0.0000 O.3     1  UNL1       -0.3649
      2 O           2.8665    4.1771    0.0000 O.3     1  UNL1       -0.3846
      3 O           4.7592   -5.2464    0.0000 O.3     1  UNL1       -0.3565
      4 O           3.7529   -2.7989    0.0000 O.3     1  UNL1       -0.3450
      5 O           6.3688    3.1740    0.0000 O.2     1  UNL1       -0.2920
      6 O           2.4548   -3.9457    0.0000 O.3     1  UNL1       -0.3647
      7 C           3.7326    1.6771    0.0000 C.3     1  UNL1       -0.0050
      8 C           3.7165    0.6356    0.0000 C.3     1  UNL1       -0.0298
      9 C           4.6145    0.1078    0.0000 C.3     1  UNL1       -0.0257
     10 C           4.5986    2.1771    0.0000 C.3     1  UNL1       -0.0203
     11 C           2.8665    2.1771    0.0000 C.3     1  UNL1        0.0914
     12 C           2.8665    3.1771    0.0000 C.3     1  UNL1        0.1153
     13 C           4.5986    3.1771    0.0000 C.3     1  UNL1        0.0647
     14 C           3.7326    3.6771    0.0000 C.3     1  UNL1        0.1104
     15 C           4.3888   -0.9027    0.0000 C.3     1  UNL1       -0.0304
     16 C           5.5166    0.6287    0.0000 C.3     1  UNL1       -0.0468
     17 C           5.5086    1.6703    0.0000 C.3     1  UNL1       -0.0484
     18 C           2.9435   -0.0533    0.0000 C.3     1  UNL1       -0.0491
     19 C           3.3582   -1.0021    0.0000 C.3     1  UNL1       -0.0491
     20 C           5.0509   -1.6522    0.0000 C.3     1  UNL1       -0.0140
     21 C           5.4767   -0.3988    0.0000 C.3     1  UNL1       -0.0590
     22 C           3.7165    4.7186    0.0000 C.3     1  UNL1       -0.0019
     23 C           5.4646    2.6771    0.0000 C.3     1  UNL1       -0.0495
     24 C           5.5086    3.6840    0.0000 C.2     1  UNL1        0.1647
     25 C           4.7329   -2.6002    0.0000 C.3     1  UNL1        0.0673
     26 C           5.0770   -4.2978    0.0000 C.3     1  UNL1        0.1034
     27 C           5.3950   -3.3497    0.0000 C.3     1  UNL1        0.0056
     28 C           4.0970   -4.4964    0.0000 C.3     1  UNL1        0.1463
     29 C           6.0310   -1.4535    0.0000 C.3     1  UNL1       -0.0598
     30 C           4.6145    5.2464    0.0000 C.2     1  UNL1       -0.0779
     31 C           5.5166    4.7256    0.0000 C.2     1  UNL1       -0.0224
     32 C           3.4349   -3.7470    0.0000 C.3     1  UNL1        0.1883
     33 C           6.0571   -4.0991    0.0000 C.3     1  UNL1       -0.0328
     34 C           3.1169   -4.6951    0.0000 C.3     1  UNL1       -0.0282
     35 H           2.9932    1.2578    0.0000 H       1  UNL1        0.0332
     36 H           2.9436    0.9893    0.0000 H       1  UNL1        0.0310
     37 H           5.3314    2.6078    0.0000 H       1  UNL1        0.0315
     38 H           2.5566    1.6401    0.0000 H       1  UNL1        0.0626
     39 H           2.5566    3.7141    0.0000 H       1  UNL1        0.0651
     40 H           4.0771   -1.6935    0.0000 H       1  UNL1        0.0310
     41 H           5.7302    0.0466    0.0000 H       1  UNL1        0.0271
     42 H           6.1266    0.7395    0.0000 H       1  UNL1        0.0271
     43 H           6.1202    1.5689    0.0000 H       1  UNL1        0.0268
     44 H           5.7131    2.2556    0.0000 H       1  UNL1        0.0268
     45 H           2.5819    0.4503    0.0000 H       1  UNL1        0.0268
     46 H           2.4046   -0.3599    0.0000 H       1  UNL1        0.0268
     47 H           2.7671   -1.1893    0.0000 H       1  UNL1        0.0268
     48 H           3.4822   -1.6096    0.0000 H       1  UNL1        0.0268
     49 H           5.2481   -1.0643    0.0000 H       1  UNL1        0.0326
     50 H           5.1626   -0.9333    0.0000 H       1  UNL1        0.0235
     51 H           6.0112   -0.7129    0.0000 H       1  UNL1        0.0235
     52 H           5.7908    0.1357    0.0000 H       1  UNL1        0.0235
     53 H           3.4985    5.2990    0.0000 H       1  UNL1        0.0336
     54 H           3.1074    4.6031    0.0000 H       1  UNL1        0.0336
     55 H           5.1546    2.1402    0.0000 H       1  UNL1        0.0240
     56 H           6.0016    2.3671    0.0000 H       1  UNL1        0.0240
     57 H           5.7746    3.2140    0.0000 H       1  UNL1        0.0240
     58 H           4.1702   -1.9632    0.0000 H       1  UNL1        0.0600
     59 H           2.8665    4.7971    0.0000 H       1  UNL1        0.2103
     60 H           5.9397   -3.6459    0.0000 H       1  UNL1        0.0319
     61 H           5.7813   -2.8647    0.0000 H       1  UNL1        0.0319
     62 H           6.1542   -2.0611    0.0000 H       1  UNL1        0.0233
     63 H           6.6386   -1.3303    0.0000 H       1  UNL1        0.0233
     64 H           5.9078   -0.8458    0.0000 H       1  UNL1        0.0233
     65 H           4.6122    5.8664    0.0000 H       1  UNL1        0.0574
     66 H           6.0548    5.0335    0.0000 H       1  UNL1        0.0649
     67 H           3.0244   -3.2824    0.0000 H       1  UNL1        0.0939
     68 H           6.1803   -4.7067    0.0000 H       1  UNL1        0.0258
     69 H           6.6648   -3.9759    0.0000 H       1  UNL1        0.0258
     70 H           5.9339   -3.4915    0.0000 H       1  UNL1        0.0258
     71 H           2.9937   -4.0875    0.0000 H       1  UNL1        0.0260
     72 H           2.5093   -4.8183    0.0000 H       1  UNL1        0.0260
     73 H           3.2401   -5.3027    0.0000 H       1  UNL1        0.0260
     74 H           2.0443   -3.4810    0.0000 H       1  UNL1        0.2126
@<TRIPOS>BOND
     1    11     1    1
     2    12     1    1
     3    14     2    1
     4     2    59    1
     5     3    26    1
     6     3    28    1
     7     4    25    1
     8     4    32    1
     9     5    24    2
    10    32     6    1
    11     6    74    1
    12     7     8    1
    13     7    10    1
    14     7    11    1
    15     7    35    1
    16     8     9    1
    17     8    18    1
    18     8    36    1
    19     9    15    1
    20     9    16    1
    21     9    21    1
    22    10    13    1
    23    10    17    1
    24    10    37    1
    25    11    12    1
    26    11    38    1
    27    12    14    1
    28    12    39    1
    29    13    14    1
    30    13    23    1
    31    13    24    1
    32    14    22    1
    33    15    19    1
    34    15    20    1
    35    15    40    1
    36    16    17    1
    37    16    41    1
    38    16    42    1
    39    17    43    1
    40    17    44    1
    41    18    19    1
    42    18    45    1
    43    18    46    1
    44    19    47    1
    45    19    48    1
    46    20    25    1
    47    20    29    1
    48    20    49    1
    49    21    50    1
    50    21    51    1
    51    21    52    1
    52    22    30    1
    53    22    53    1
    54    22    54    1
    55    23    55    1
    56    23    56    1
    57    23    57    1
    58    24    31    1
    59    25    27    1
    60    25    58    1
    61    26    27    1
    62    26    28    1
    63    26    33    1
    64    27    60    1
    65    27    61    1
    66    28    32    1
    67    28    34    1
    68    29    62    1
    69    29    63    1
    70    29    64    1
    71    30    31    2
    72    30    65    1
    73    31    66    1
    74    32    67    1
    75    33    68    1
    76    33    69    1
    77    33    70    1
    78    34    71    1
    79    34    72    1
    80    34    73    1
