@<TRIPOS>MOLECULE
IMPHY006424
 138 143 0 0 0
SMALL
GASTEIGER

@<TRIPOS>ATOM
      1 O           8.1006   -4.5630    0.0000 O.2     1  UNL1       -0.2907
      2 O          10.4256   -3.6496    0.0000 O.3     1  UNL1       -0.4672
      3 O          13.1449   -0.9700    0.0000 O.3     1  UNL1       -0.4605
      4 O          10.6312   -1.9298    0.0000 O.2     1  UNL1       -0.2497
      5 O          12.1022   -2.3530    0.0000 O.2     1  UNL1       -0.2508
      6 N           8.1923   -0.0868    0.0000 N.2     1  UNL1       -0.2555
      7 N           6.7126   -1.4362    0.0000 N.2     1  UNL1       -0.2464
      8 N           6.6795    1.2628    0.0000 N.ar    1  UNL1       -0.3543
      9 N           5.2310   -0.0868    0.0000 N.ar    1  UNL1       -0.3545
     10 C           9.7067   -0.5470    0.0000 C.3     1  UNL1        0.0102
     11 C           9.7067    0.4395    0.0000 C.3     1  UNL1        0.0068
     12 C           8.7846   -0.8110    0.0000 C.2     1  UNL1        0.0517
     13 C          10.5052   -1.1490    0.0000 C.3     1  UNL1       -0.0341
     14 C           8.4894   -1.7647    0.0000 C.2     1  UNL1        0.0214
     15 C           8.7516    0.7034    0.0000 C.2     1  UNL1        0.0470
     16 C           9.0390   -2.6116    0.0000 C.3     1  UNL1        0.1476
     17 C           7.5028   -2.0286    0.0000 C.2     1  UNL1        0.0814
     18 C          10.5025    1.0451    0.0000 C.3     1  UNL1       -0.0564
     19 C           7.2058   -2.9821    0.0000 C.2     1  UNL1        0.0492
     20 C          11.4258   -0.7585    0.0000 C.3     1  UNL1        0.0456
     21 C           8.0299   -3.5656    0.0000 C.2     1  UNL1        0.1837
     22 C           8.4563    1.6242    0.0000 C.2     1  UNL1       -0.0165
     23 C           6.2191   -2.9821    0.0000 C.2     1  UNL1       -0.0125
     24 C          22.5389   -2.6294    0.0000 C.3     1  UNL1       -0.0439
     25 C           5.9222   -2.0616    0.0000 C.2     1  UNL1        0.0701
     26 C          21.7404   -2.0274    0.0000 C.3     1  UNL1       -0.0505
     27 C          19.1007   -2.2064    0.0000 C.3     1  UNL1       -0.0439
     28 C          10.0319   -2.7304    0.0000 C.2     1  UNL1        0.3221
     29 C          20.8198   -2.4179    0.0000 C.3     1  UNL1       -0.0526
     30 C          20.0213   -1.8159    0.0000 C.3     1  UNL1       -0.0505
     31 C          23.4595   -2.2389    0.0000 C.3     1  UNL1       -0.0505
     32 C           7.5028    1.9211    0.0000 C.ar    1  UNL1        0.0449
     33 C          18.3022   -1.6044    0.0000 C.3     1  UNL1       -0.0502
     34 C          12.2243   -1.3605    0.0000 C.2     1  UNL1        0.3074
     35 C          24.2580   -2.8409    0.0000 C.3     1  UNL1       -0.0526
     36 C           5.6304   -3.7905    0.0000 C.3     1  UNL1       -0.0370
     37 C           7.1728    2.8416    0.0000 C.ar    1  UNL1       -0.0180
     38 C          25.1786   -2.4504    0.0000 C.3     1  UNL1       -0.0507
     39 C           4.9686   -1.7647    0.0000 C.2     1  UNL1       -0.0124
     40 C          22.4168   -3.6219    0.0000 C.3     1  UNL1       -0.0624
     41 C          17.3816   -1.9949    0.0000 C.3     1  UNL1       -0.0491
     42 C          18.9786   -3.1990    0.0000 C.3     1  UNL1       -0.0624
     43 C           5.8892    1.8881    0.0000 C.ar    1  UNL1        0.0491
     44 C           4.6717   -0.8440    0.0000 C.ar    1  UNL1        0.0452
     45 C          25.9771   -3.0524    0.0000 C.3     1  UNL1       -0.0467
     46 C           6.1862    2.8416    0.0000 C.ar    1  UNL1        0.0027
     47 C          16.5831   -1.3929    0.0000 C.3     1  UNL1       -0.0319
     48 C           3.7182   -0.5800    0.0000 C.ar    1  UNL1       -0.0194
     49 C           4.6717    0.6705    0.0000 C.ar    1  UNL1        0.0448
     50 C           4.9356    1.6242    0.0000 C.2     1  UNL1       -0.0141
     51 C           3.7182    0.4066    0.0000 C.ar    1  UNL1       -0.0220
     52 C           7.7483    3.6594    0.0000 C.3     1  UNL1       -0.0371
     53 C          15.6625   -1.7835    0.0000 C.2     1  UNL1       -0.0734
     54 C          13.9434   -1.5720    0.0000 C.3     1  UNL1        0.1109
     55 C          26.8977   -2.6618    0.0000 C.3     1  UNL1       -0.0627
     56 C          25.8550   -4.0449    0.0000 C.3     1  UNL1       -0.0627
     57 C           2.9223   -1.1855    0.0000 C.3     1  UNL1       -0.0283
     58 C          14.8640   -1.1815    0.0000 C.2     1  UNL1       -0.0480
     59 C           5.5935    3.6470    0.0000 C.2     1  UNL1       -0.0594
     60 C          11.4185   -3.7683    0.0000 C.3     1  UNL1        0.0817
     61 C           2.9223    1.0121    0.0000 C.3     1  UNL1       -0.0374
     62 C          15.5404   -2.7760    0.0000 C.3     1  UNL1       -0.0437
     63 C           2.0000   -0.7990    0.0000 C.3     1  UNL1       -0.0612
     64 C           5.9946    4.5630    0.0000 C.2     1  UNL1       -0.0981
     65 H          10.2616   -0.2704    0.0000 H       1  UNL1        0.0370
     66 H           9.5894    1.0483    0.0000 H       1  UNL1        0.0368
     67 H          10.0517   -1.5717    0.0000 H       1  UNL1        0.0277
     68 H          10.8428   -1.6691    0.0000 H       1  UNL1        0.0277
     69 H           9.3668   -2.0854    0.0000 H       1  UNL1        0.0546
     70 H          10.8780    0.5517    0.0000 H       1  UNL1        0.0236
     71 H          10.9959    1.4206    0.0000 H       1  UNL1        0.0236
     72 H          10.1270    1.5385    0.0000 H       1  UNL1        0.0236
     73 H          11.8794   -0.3358    0.0000 H       1  UNL1        0.0378
     74 H          11.0883   -0.2384    0.0000 H       1  UNL1        0.0378
     75 H           8.8928    2.0644    0.0000 H       1  UNL1        0.0656
     76 H          23.0339   -3.0026    0.0000 H       1  UNL1        0.0298
     77 H          22.1939   -1.6047    0.0000 H       1  UNL1        0.0268
     78 H          21.4028   -1.5073    0.0000 H       1  UNL1        0.0268
     79 H          18.5299   -2.4486    0.0000 H       1  UNL1        0.0298
     80 H          20.3662   -2.8406    0.0000 H       1  UNL1        0.0265
     81 H          21.1573   -2.9380    0.0000 H       1  UNL1        0.0265
     82 H          20.4748   -1.3932    0.0000 H       1  UNL1        0.0268
     83 H          19.6837   -1.2959    0.0000 H       1  UNL1        0.0268
     84 H          23.9130   -1.8162    0.0000 H       1  UNL1        0.0268
     85 H          23.1219   -1.7188    0.0000 H       1  UNL1        0.0268
     86 H          18.7557   -1.1817    0.0000 H       1  UNL1        0.0268
     87 H          17.9646   -1.0844    0.0000 H       1  UNL1        0.0268
     88 H          23.8044   -3.2636    0.0000 H       1  UNL1        0.0265
     89 H          24.5955   -3.3609    0.0000 H       1  UNL1        0.0265
     90 H           5.1292   -3.4255    0.0000 H       1  UNL1        0.0278
     91 H           5.2654   -4.2917    0.0000 H       1  UNL1        0.0278
     92 H           6.1316   -4.1555    0.0000 H       1  UNL1        0.0278
     93 H          25.6321   -2.0276    0.0000 H       1  UNL1        0.0268
     94 H          24.8410   -1.9303    0.0000 H       1  UNL1        0.0268
     95 H          21.8014   -3.5462    0.0000 H       1  UNL1        0.0232
     96 H          22.3411   -4.2373    0.0000 H       1  UNL1        0.0232
     97 H          23.0321   -3.6976    0.0000 H       1  UNL1        0.0232
     98 H           4.5324   -2.2053    0.0000 H       1  UNL1        0.0659
     99 H          16.9281   -2.4177    0.0000 H       1  UNL1        0.0268
    100 H          17.7192   -2.5150    0.0000 H       1  UNL1        0.0268
    101 H           6.6811    0.6428    0.0000 H       1  UNL1        0.1659
    102 H          18.3632   -3.1232    0.0000 H       1  UNL1        0.0232
    103 H          18.9029   -3.8143    0.0000 H       1  UNL1        0.0232
    104 H          19.5940   -3.2746    0.0000 H       1  UNL1        0.0232
    105 H          25.4063   -3.2945    0.0000 H       1  UNL1        0.0295
    106 H          17.0366   -0.9702    0.0000 H       1  UNL1        0.0310
    107 H          16.2456   -0.8729    0.0000 H       1  UNL1        0.0310
    108 H           4.4972    2.0625    0.0000 H       1  UNL1        0.0659
    109 H           5.8470   -0.1564    0.0000 H       1  UNL1        0.1659
    110 H           8.2553    3.3026    0.0000 H       1  UNL1        0.0278
    111 H           8.1051    4.1665    0.0000 H       1  UNL1        0.0278
    112 H           7.2412    4.0162    0.0000 H       1  UNL1        0.0278
    113 H          13.4899   -1.9947    0.0000 H       1  UNL1        0.0743
    114 H          14.2810   -2.0920    0.0000 H       1  UNL1        0.0743
    115 H          27.1398   -3.2326    0.0000 H       1  UNL1        0.0232
    116 H          27.4684   -2.4197    0.0000 H       1  UNL1        0.0232
    117 H          26.6555   -2.0911    0.0000 H       1  UNL1        0.0232
    118 H          25.2396   -3.9692    0.0000 H       1  UNL1        0.0232
    119 H          25.7793   -4.6602    0.0000 H       1  UNL1        0.0232
    120 H          26.4703   -4.1206    0.0000 H       1  UNL1        0.0232
    121 H           2.5870   -1.7070    0.0000 H       1  UNL1        0.0311
    122 H           3.3777   -1.6062    0.0000 H       1  UNL1        0.0311
    123 H          14.9397   -0.5661    0.0000 H       1  UNL1        0.0605
    124 H           4.9773    3.5785    0.0000 H       1  UNL1        0.0618
    125 H          11.3449   -4.3839    0.0000 H       1  UNL1        0.0661
    126 H          12.0341   -3.8419    0.0000 H       1  UNL1        0.0661
    127 H          11.4921   -3.1527    0.0000 H       1  UNL1        0.0661
    128 H           3.2978    1.5055    0.0000 H       1  UNL1        0.0278
    129 H           2.4289    1.3875    0.0000 H       1  UNL1        0.0278
    130 H           2.5469    0.5187    0.0000 H       1  UNL1        0.0278
    131 H          14.9250   -2.7003    0.0000 H       1  UNL1        0.0274
    132 H          15.4647   -3.3913    0.0000 H       1  UNL1        0.0274
    133 H          16.1558   -2.8517    0.0000 H       1  UNL1        0.0274
    134 H           2.2396   -0.2271    0.0000 H       1  UNL1        0.0233
    135 H           1.4282   -0.5593    0.0000 H       1  UNL1        0.0233
    136 H           1.7604   -1.3708    0.0000 H       1  UNL1        0.0233
    137 H           6.6108    4.6316    0.0000 H       1  UNL1        0.0535
    138 H           5.6271    5.0624    0.0000 H       1  UNL1        0.0535
@<TRIPOS>BOND
     1     1    21    2
     2     2    28    1
     3     2    60    1
     4     3    34    1
     5     3    54    1
     6     4    28    2
     7     5    34    2
     8     6    12    1
     9     6    15    2
    10     7    17    2
    11     7    25    1
    12     8    32   ar
    13     8    43   ar
    14     8   101    1
    15     9    44   ar
    16     9    49   ar
    17     9   109    1
    18    10    11    1
    19    10    12    1
    20    10    13    1
    21    10    65    1
    22    11    15    1
    23    11    18    1
    24    11    66    1
    25    12    14    2
    26    13    20    1
    27    13    67    1
    28    13    68    1
    29    14    16    1
    30    14    17    1
    31    15    22    1
    32    16    21    1
    33    16    28    1
    34    16    69    1
    35    17    19    1
    36    18    70    1
    37    18    71    1
    38    18    72    1
    39    19    21    1
    40    19    23    2
    41    20    34    1
    42    20    73    1
    43    20    74    1
    44    22    32    2
    45    22    75    1
    46    23    25    1
    47    23    36    1
    48    24    26    1
    49    24    31    1
    50    24    40    1
    51    24    76    1
    52    25    39    2
    53    26    29    1
    54    26    77    1
    55    26    78    1
    56    27    30    1
    57    27    33    1
    58    27    42    1
    59    27    79    1
    60    29    30    1
    61    29    80    1
    62    29    81    1
    63    30    82    1
    64    30    83    1
    65    31    35    1
    66    31    84    1
    67    31    85    1
    68    32    37   ar
    69    33    41    1
    70    33    86    1
    71    33    87    1
    72    35    38    1
    73    35    88    1
    74    35    89    1
    75    36    90    1
    76    36    91    1
    77    36    92    1
    78    37    46   ar
    79    37    52    1
    80    38    45    1
    81    38    93    1
    82    38    94    1
    83    39    44    1
    84    39    98    1
    85    40    95    1
    86    40    96    1
    87    40    97    1
    88    41    47    1
    89    41    99    1
    90    41   100    1
    91    42   102    1
    92    42   103    1
    93    42   104    1
    94    43    46   ar
    95    43    50    2
    96    44    48   ar
    97    45    55    1
    98    45    56    1
    99    45   105    1
   100    46    59    1
   101    47    53    1
   102    47   106    1
   103    47   107    1
   104    48    51   ar
   105    48    57    1
   106    49    50    1
   107    49    51   ar
   108    50   108    1
   109    51    61    1
   110    52   110    1
   111    52   111    1
   112    52   112    1
   113    53    58    2
   114    53    62    1
   115    54    58    1
   116    54   113    1
   117    54   114    1
   118    55   115    1
   119    55   116    1
   120    55   117    1
   121    56   118    1
   122    56   119    1
   123    56   120    1
   124    57    63    1
   125    57   121    1
   126    57   122    1
   127    58   123    1
   128    59    64    2
   129    59   124    1
   130    60   125    1
   131    60   126    1
   132    60   127    1
   133    61   128    1
   134    61   129    1
   135    61   130    1
   136    62   131    1
   137    62   132    1
   138    62   133    1
   139    63   134    1
   140    63   135    1
   141    63   136    1
   142    64   137    1
   143    64   138    1
