@<TRIPOS>MOLECULE
IMPHY010932
 148 154 0 0 0
SMALL
GASTEIGER

@<TRIPOS>ATOM
      1 O          10.0160   -1.2197    0.0000 O.3     1  UNL1       -0.3451
      2 O           9.1164    4.3461    0.0000 O.3     1  UNL1       -0.3915
      3 O           6.6801    5.0425    0.0000 O.3     1  UNL1       -0.3422
      4 O          13.6609   -0.1887    0.0000 O.3     1  UNL1       -0.3912
      5 O           8.2839   -1.2197    0.0000 O.3     1  UNL1       -0.3405
      6 O           5.0358    4.4981    0.0000 O.3     1  UNL1       -0.3405
      7 O          10.0160   -3.2197    0.0000 O.3     1  UNL1       -0.3378
      8 O           8.2839   -4.2197    0.0000 O.3     1  UNL1       -0.3864
      9 O           6.0514    6.9411    0.0000 O.3     1  UNL1       -0.3841
     10 O           6.5519   -3.2197    0.0000 O.3     1  UNL1       -0.3865
     11 O           4.0929    7.3460    0.0000 O.3     1  UNL1       -0.3864
     12 O           2.7629    5.8523    0.0000 O.3     1  UNL1       -0.3865
     13 O           9.1499   -4.7197    0.0000 O.3     1  UNL1       -0.3431
     14 O           5.6858   -1.7197    0.0000 O.3     1  UNL1       -0.3924
     15 O           2.4123    4.1561    0.0000 O.3     1  UNL1       -0.3924
     16 O          11.7480   -4.2197    0.0000 O.3     1  UNL1       -0.3841
     17 O          11.7480   -6.2197    0.0000 O.3     1  UNL1       -0.3864
     18 O          10.0160   -7.2197    0.0000 O.3     1  UNL1       -0.3866
     19 C           9.1279    1.3461    0.0000 C.3     1  UNL1       -0.0206
     20 C           8.2600    1.8428    0.0000 C.3     1  UNL1       -0.0208
     21 C           9.9920    1.8495    0.0000 C.3     1  UNL1       -0.0269
     22 C          10.9040    1.3461    0.0000 C.3     1  UNL1       -0.0228
     23 C           8.2561    2.8428    0.0000 C.3     1  UNL1       -0.0036
     24 C          10.9160    0.3046    0.0000 C.3     1  UNL1       -0.0014
     25 C           9.1159    0.3046    0.0000 C.3     1  UNL1       -0.0200
     26 C           9.9882    2.8495    0.0000 C.3     1  UNL1       -0.0227
     27 C           7.3088    3.1439    0.0000 C.3     1  UNL1       -0.0063
     28 C           9.1202    3.3461    0.0000 C.3     1  UNL1        0.0592
     29 C           7.3150    1.5344    0.0000 C.3     1  UNL1       -0.0464
     30 C          10.0160   -0.2197    0.0000 C.3     1  UNL1        0.0662
     31 C          11.8536   -0.2415    0.0000 C.3     1  UNL1       -0.0032
     32 C           6.7282    2.3369    0.0000 C.3     1  UNL1       -0.0467
     33 C          11.8286    1.9138    0.0000 C.3     1  UNL1       -0.0446
     34 C           8.4881    0.5776    0.0000 C.3     1  UNL1       -0.0587
     35 C           7.9216    0.9018    0.0000 C.3     1  UNL1       -0.0587
     36 C          10.8924    2.3461    0.0000 C.3     1  UNL1       -0.0589
     37 C          12.7911    0.3046    0.0000 C.3     1  UNL1        0.0607
     38 C           6.9944    4.0932    0.0000 C.3     1  UNL1        0.0733
     39 C          12.7785    1.3895    0.0000 C.3     1  UNL1       -0.0258
     40 C          12.3536   -1.1076    0.0000 C.3     1  UNL1       -0.0571
     41 C          11.3536   -1.1076    0.0000 C.3     1  UNL1       -0.0571
     42 C           6.0451    3.7789    0.0000 C.3     1  UNL1       -0.0202
     43 C           7.9437    4.4075    0.0000 C.3     1  UNL1       -0.0354
     44 C           9.1499   -1.7197    0.0000 C.3     1  UNL1        0.1886
     45 C           5.8427    2.7996    0.0000 C.3     1  UNL1       -0.0319
     46 C           5.7008    5.2450    0.0000 C.3     1  UNL1        0.1885
     47 C           9.1499   -2.7197    0.0000 C.3     1  UNL1        0.1406
     48 C           8.2839   -3.2197    0.0000 C.3     1  UNL1        0.1144
     49 C           5.3865    6.1943    0.0000 C.3     1  UNL1        0.1341
     50 C           7.4179   -1.7197    0.0000 C.3     1  UNL1        0.1130
     51 C           4.8934    2.4852    0.0000 C.2     1  UNL1       -0.0852
     52 C           7.4179   -2.7197    0.0000 C.3     1  UNL1        0.1119
     53 C           4.4072    6.3967    0.0000 C.3     1  UNL1        0.1141
     54 C           4.0565    4.7005    0.0000 C.3     1  UNL1        0.1130
     55 C           3.7422    5.6498    0.0000 C.3     1  UNL1        0.1119
     56 C           6.5519   -1.2197    0.0000 C.3     1  UNL1        0.0730
     57 C           4.6909    1.5059    0.0000 C.2     1  UNL1       -0.0796
     58 C          10.0160   -4.2197    0.0000 C.3     1  UNL1        0.1884
     59 C           3.3916    3.9536    0.0000 C.3     1  UNL1        0.0730
     60 C          10.8820   -4.7197    0.0000 C.3     1  UNL1        0.1341
     61 C           3.7416    1.1916    0.0000 C.3     1  UNL1       -0.0440
     62 C           5.4378    0.8410    0.0000 C.3     1  UNL1       -0.0440
     63 C          10.8820   -5.7197    0.0000 C.3     1  UNL1        0.1140
     64 C           9.1499   -5.7197    0.0000 C.3     1  UNL1        0.0873
     65 C          10.0160   -6.2197    0.0000 C.3     1  UNL1        0.1095
     66 C           8.2839   -6.2197    0.0000 C.3     1  UNL1       -0.0361
     67 H          10.7232    2.2830    0.0000 H       1  UNL1        0.0312
     68 H           8.1882    3.4590    0.0000 H       1  UNL1        0.0335
     69 H          10.9160   -0.3154    0.0000 H       1  UNL1        0.0337
     70 H           8.5063    0.4177    0.0000 H       1  UNL1        0.0296
     71 H           8.9001   -0.2767    0.0000 H       1  UNL1        0.0296
     72 H          10.5992    2.7442    0.0000 H       1  UNL1        0.0293
     73 H          10.1980    3.4329    0.0000 H       1  UNL1        0.0293
     74 H           6.6959    3.2377    0.0000 H       1  UNL1        0.0332
     75 H           9.6560    3.6582    0.0000 H       1  UNL1        0.0596
     76 H           6.7788    1.2231    0.0000 H       1  UNL1        0.0271
     77 H           7.5682    0.9685    0.0000 H       1  UNL1        0.0271
     78 H          10.5535   -0.5287    0.0000 H       1  UNL1        0.0600
     79 H           6.2658    2.7498    0.0000 H       1  UNL1        0.0269
     80 H           6.2690    1.9204    0.0000 H       1  UNL1        0.0269
     81 H          12.2167    2.3973    0.0000 H       1  UNL1        0.0271
     82 H          11.4186    2.3789    0.0000 H       1  UNL1        0.0271
     83 H           8.0116    0.9744    0.0000 H       1  UNL1        0.0235
     84 H           8.0914    0.1012    0.0000 H       1  UNL1        0.0235
     85 H           8.9645    0.1809    0.0000 H       1  UNL1        0.0235
     86 H           7.3382    1.1116    0.0000 H       1  UNL1        0.0235
     87 H           7.7118    0.3184    0.0000 H       1  UNL1        0.0235
     88 H           8.5050    0.6920    0.0000 H       1  UNL1        0.0235
     89 H          11.5124    2.3532    0.0000 H       1  UNL1        0.0235
     90 H          10.8852    2.9660    0.0000 H       1  UNL1        0.0235
     91 H          10.2725    2.3389    0.0000 H       1  UNL1        0.0235
     92 H          13.3250    0.6197    0.0000 H       1  UNL1        0.0599
     93 H          13.3906    1.2905    0.0000 H       1  UNL1        0.0290
     94 H          12.9808    1.9756    0.0000 H       1  UNL1        0.0290
     95 H          11.8166   -1.4176    0.0000 H       1  UNL1        0.0236
     96 H          10.8166   -0.7976    0.0000 H       1  UNL1        0.0236
     97 H          11.0436   -1.6445    0.0000 H       1  UNL1        0.0236
     98 H          12.6636   -1.6445    0.0000 H       1  UNL1        0.0236
     99 H          12.8905   -0.7976    0.0000 H       1  UNL1        0.0236
    100 H          11.8905   -1.4176    0.0000 H       1  UNL1        0.0236
    101 H           9.6521    4.6582    0.0000 H       1  UNL1        0.2098
    102 H           5.9554    4.3923    0.0000 H       1  UNL1        0.0296
    103 H           5.4254    3.7970    0.0000 H       1  UNL1        0.0296
    104 H           8.1386    3.8189    0.0000 H       1  UNL1        0.0257
    105 H           8.5323    4.6024    0.0000 H       1  UNL1        0.0257
    106 H           7.7489    4.9961    0.0000 H       1  UNL1        0.0257
    107 H           9.6869   -2.0297    0.0000 H       1  UNL1        0.0938
    108 H          14.1955    0.1254    0.0000 H       1  UNL1        0.2098
    109 H           5.9324    2.1861    0.0000 H       1  UNL1        0.0308
    110 H           6.4624    2.7814    0.0000 H       1  UNL1        0.0308
    111 H           5.8957    4.6564    0.0000 H       1  UNL1        0.0938
    112 H           9.1499   -3.3397    0.0000 H       1  UNL1        0.0675
    113 H           7.7470   -3.5297    0.0000 H       1  UNL1        0.0648
    114 H           5.9936    6.0688    0.0000 H       1  UNL1        0.0671
    115 H           7.4179   -1.0997    0.0000 H       1  UNL1        0.0647
    116 H           4.4303    2.8975    0.0000 H       1  UNL1        0.0571
    117 H           6.8809   -2.4097    0.0000 H       1  UNL1        0.0647
    118 H           4.8195    6.8598    0.0000 H       1  UNL1        0.0648
    119 H           4.2514    4.1120    0.0000 H       1  UNL1        0.0647
    120 H           3.5473    6.2384    0.0000 H       1  UNL1        0.0647
    121 H           6.9504   -0.7448    0.0000 H       1  UNL1        0.0584
    122 H           6.1533   -0.7448    0.0000 H       1  UNL1        0.0584
    123 H          10.5529   -3.9097    0.0000 H       1  UNL1        0.0938
    124 H           7.7470   -4.5297    0.0000 H       1  UNL1        0.2100
    125 H           5.8566    7.5297    0.0000 H       1  UNL1        0.2101
    126 H           6.5519   -3.8397    0.0000 H       1  UNL1        0.2100
    127 H           3.1625    3.3775    0.0000 H       1  UNL1        0.0584
    128 H           3.9192    3.6280    0.0000 H       1  UNL1        0.0584
    129 H           3.4857    7.4715    0.0000 H       1  UNL1        0.2100
    130 H          11.4189   -5.0297    0.0000 H       1  UNL1        0.0671
    131 H           5.0255    0.3779    0.0000 H       1  UNL1        0.0274
    132 H           5.9008    0.4287    0.0000 H       1  UNL1        0.0274
    133 H           5.8501    1.3040    0.0000 H       1  UNL1        0.0274
    134 H           3.5467    1.7802    0.0000 H       1  UNL1        0.0274
    135 H           3.1530    0.9967    0.0000 H       1  UNL1        0.0274
    136 H           3.9365    0.6031    0.0000 H       1  UNL1        0.0274
    137 H           2.5680    6.4409    0.0000 H       1  UNL1        0.2100
    138 H           5.1489   -1.4097    0.0000 H       1  UNL1        0.2095
    139 H          10.8820   -6.3397    0.0000 H       1  UNL1        0.0648
    140 H           8.6130   -5.4097    0.0000 H       1  UNL1        0.0621
    141 H           9.4790   -6.5297    0.0000 H       1  UNL1        0.0646
    142 H           2.0000    3.6930    0.0000 H       1  UNL1        0.2095
    143 H          12.2849   -4.5297    0.0000 H       1  UNL1        0.2101
    144 H           7.9739   -5.6828    0.0000 H       1  UNL1        0.0255
    145 H           7.7470   -6.5297    0.0000 H       1  UNL1        0.0255
    146 H           8.5939   -6.7566    0.0000 H       1  UNL1        0.0255
    147 H          11.7480   -6.8397    0.0000 H       1  UNL1        0.2100
    148 H           9.4790   -7.5297    0.0000 H       1  UNL1        0.2100
@<TRIPOS>BOND
     1    30     1    1
     2     1    44    1
     3    28     2    1
     4     2   101    1
     5    38     3    1
     6     3    46    1
     7    37     4    1
     8     4   108    1
     9     5    44    1
    10     5    50    1
    11     6    46    1
    12     6    54    1
    13    47     7    1
    14     7    58    1
    15    48     8    1
    16     8   124    1
    17    49     9    1
    18     9   125    1
    19    52    10    1
    20    10   126    1
    21    53    11    1
    22    11   129    1
    23    55    12    1
    24    12   137    1
    25    13    58    1
    26    13    64    1
    27    14    56    1
    28    14   138    1
    29    15    59    1
    30    15   142    1
    31    60    16    1
    32    16   143    1
    33    63    17    1
    34    17   147    1
    35    65    18    1
    36    18   148    1
    37    19    20    1
    38    19    21    1
    39    19    25    1
    40    19    34    1
    41    20    23    1
    42    20    29    1
    43    20    35    1
    44    21    22    1
    45    21    26    1
    46    21    67    1
    47    22    24    1
    48    22    33    1
    49    22    36    1
    50    23    27    1
    51    23    28    1
    52    23    68    1
    53    24    30    1
    54    24    31    1
    55    24    69    1
    56    25    30    1
    57    25    70    1
    58    25    71    1
    59    26    28    1
    60    26    72    1
    61    26    73    1
    62    27    32    1
    63    27    38    1
    64    27    74    1
    65    28    75    1
    66    29    32    1
    67    29    76    1
    68    29    77    1
    69    30    78    1
    70    31    37    1
    71    31    40    1
    72    31    41    1
    73    32    79    1
    74    32    80    1
    75    33    39    1
    76    33    81    1
    77    33    82    1
    78    34    83    1
    79    34    84    1
    80    34    85    1
    81    35    86    1
    82    35    87    1
    83    35    88    1
    84    36    89    1
    85    36    90    1
    86    36    91    1
    87    37    39    1
    88    37    92    1
    89    38    42    1
    90    38    43    1
    91    39    93    1
    92    39    94    1
    93    40    95    1
    94    40    98    1
    95    40    99    1
    96    41    96    1
    97    41    97    1
    98    41   100    1
    99    42    45    1
   100    42   102    1
   101    42   103    1
   102    43   104    1
   103    43   105    1
   104    43   106    1
   105    44    47    1
   106    44   107    1
   107    45    51    1
   108    45   109    1
   109    45   110    1
   110    46    49    1
   111    46   111    1
   112    47    48    1
   113    47   112    1
   114    48    52    1
   115    48   113    1
   116    49    53    1
   117    49   114    1
   118    50    52    1
   119    50    56    1
   120    50   115    1
   121    51    57    2
   122    51   116    1
   123    52   117    1
   124    53    55    1
   125    53   118    1
   126    54    55    1
   127    54    59    1
   128    54   119    1
   129    55   120    1
   130    56   121    1
   131    56   122    1
   132    57    61    1
   133    57    62    1
   134    58    60    1
   135    58   123    1
   136    59   127    1
   137    59   128    1
   138    60    63    1
   139    60   130    1
   140    61   134    1
   141    61   135    1
   142    61   136    1
   143    62   131    1
   144    62   132    1
   145    62   133    1
   146    63    65    1
   147    63   139    1
   148    64    65    1
   149    64    66    1
   150    64   140    1
   151    65   141    1
   152    66   144    1
   153    66   145    1
   154    66   146    1
