@<TRIPOS>MOLECULE
IMPHY017445
 23 23 0 0 0
SMALL
GASTEIGER

@<TRIPOS>ATOM
      1 O           2.8660   -1.7500    0.0000 O.3     1  UNL1       -0.4601
      2 O           3.7320   -3.2500    0.0000 O.2     1  UNL1       -0.2512
      3 O           4.5981    3.2500    0.0000 O.2     1  UNL1       -0.2957
      4 C           3.7320   -0.2500    0.0000 C.ar    1  UNL1       -0.0103
      5 C           3.7320   -1.2500    0.0000 C.3     1  UNL1        0.1175
      6 C           4.5981    0.2500    0.0000 C.ar    1  UNL1       -0.0547
      7 C           2.8660    0.2500    0.0000 C.ar    1  UNL1       -0.0547
      8 C           3.7320    1.7500    0.0000 C.ar    1  UNL1        0.0142
      9 C           4.5981    1.2500    0.0000 C.ar    1  UNL1       -0.0512
     10 C           2.8660    1.2500    0.0000 C.ar    1  UNL1       -0.0512
     11 C           2.8660   -2.7500    0.0000 C.2     1  UNL1        0.3043
     12 C           3.7320    2.7500    0.0000 C.2     1  UNL1        0.1502
     13 C           2.0000   -3.2500    0.0000 C.3     1  UNL1        0.0332
     14 H           3.9441   -1.8326    0.0000 H       1  UNL1        0.0749
     15 H           4.3426   -1.1423    0.0000 H       1  UNL1        0.0749
     16 H           5.1350   -0.0600    0.0000 H       1  UNL1        0.0622
     17 H           2.3291   -0.0600    0.0000 H       1  UNL1        0.0622
     18 H           5.1350    1.5600    0.0000 H       1  UNL1        0.0625
     19 H           2.3291    1.5600    0.0000 H       1  UNL1        0.0625
     20 H           3.1951    3.0600    0.0000 H       1  UNL1        0.1081
     21 H           1.6900   -2.7131    0.0000 H       1  UNL1        0.0342
     22 H           1.4631   -3.5600    0.0000 H       1  UNL1        0.0342
     23 H           2.3100   -3.7869    0.0000 H       1  UNL1        0.0342
@<TRIPOS>BOND
     1     1     5    1
     2     1    11    1
     3     2    11    2
     4     3    12    2
     5     4     5    1
     6     4     6   ar
     7     4     7   ar
     8     5    14    1
     9     5    15    1
    10     6     9   ar
    11     6    16    1
    12     7    10   ar
    13     7    17    1
    14     8     9   ar
    15     8    10   ar
    16     8    12    1
    17     9    18    1
    18    10    19    1
    19    11    13    1
    20    12    20    1
    21    13    21    1
    22    13    22    1
    23    13    23    1
