@<TRIPOS>MOLECULE
IMPHY001058
 45 48 0 0 0
SMALL
GASTEIGER

@<TRIPOS>ATOM
      1 O           7.4749   -2.2230    0.0000 O.2     1  UNL1       -0.2967
      2 O           5.1277    2.1572    0.0000 O.2     1  UNL1       -0.2968
      3 N           7.2252    2.2230    0.0000 N.3     1  UNL1       -0.3014
      4 C           5.7855   -0.2706    0.0000 C.3     1  UNL1        0.0457
      5 C           6.7252   -0.6126    0.0000 C.3     1  UNL1        0.0542
      6 C           5.1755   -1.0555    0.0000 C.3     1  UNL1       -0.0208
      7 C           5.2855    0.5954    0.0000 C.3     1  UNL1       -0.0383
      8 C           6.6147    0.8688    0.0000 C.3     1  UNL1        0.0122
      9 C           5.7321   -1.8792    0.0000 C.3     1  UNL1        0.0102
     10 C           7.6649   -0.2706    0.0000 C.3     1  UNL1       -0.0374
     11 C           6.6879   -1.6060    0.0000 C.2     1  UNL1        0.1419
     12 C           3.6598   -1.0531    0.0000 C.3     1  UNL1       -0.0459
     13 C           5.4088    1.1976    0.0000 C.2     1  UNL1        0.1410
     14 C           2.9947    0.3089    0.0000 C.3     1  UNL1       -0.0369
     15 C           5.4592    1.5802    0.0000 C.3     1  UNL1       -0.0393
     16 C           3.9248    1.5057    0.0000 C.3     1  UNL1        0.0090
     17 C           8.1649    0.5954    0.0000 C.3     1  UNL1       -0.0392
     18 C           6.2252    2.2230    0.0000 C.3     1  UNL1       -0.0011
     19 C           7.9912    1.5802    0.0000 C.3     1  UNL1       -0.0011
     20 C           2.0000    0.4119    0.0000 C.3     1  UNL1       -0.0620
     21 H           4.7762   -1.8059    0.0000 H       1  UNL1        0.0315
     22 H           4.7315    0.8737    0.0000 H       1  UNL1        0.0275
     23 H           4.8600    0.1445    0.0000 H       1  UNL1        0.0275
     24 H           6.1745    1.3053    0.0000 H       1  UNL1        0.0436
     25 H           7.2253    0.7611    0.0000 H       1  UNL1        0.0436
     26 H           5.1848   -2.1704    0.0000 H       1  UNL1        0.0345
     27 H           5.9642   -2.4541    0.0000 H       1  UNL1        0.0345
     28 H           7.7009   -0.8895    0.0000 H       1  UNL1        0.0276
     29 H           8.2682   -0.4136    0.0000 H       1  UNL1        0.0276
     30 H           3.0679   -1.2377    0.0000 H       1  UNL1        0.0271
     31 H           3.7527   -1.6661    0.0000 H       1  UNL1        0.0271
     32 H           2.7513    0.8791    0.0000 H       1  UNL1        0.0302
     33 H           5.2136    2.1495    0.0000 H       1  UNL1        0.0278
     34 H           4.8434    1.5083    0.0000 H       1  UNL1        0.0278
     35 H           4.1412    2.0867    0.0000 H       1  UNL1        0.0344
     36 H           3.3832    1.8077    0.0000 H       1  UNL1        0.0344
     37 H           8.5904    0.1445    0.0000 H       1  UNL1        0.0278
     38 H           8.7190    0.8737    0.0000 H       1  UNL1        0.0278
     39 H           6.4030    2.8170    0.0000 H       1  UNL1        0.0426
     40 H           5.7072    2.5637    0.0000 H       1  UNL1        0.0426
     41 H           8.6070    1.5083    0.0000 H       1  UNL1        0.0426
     42 H           8.2368    2.1495    0.0000 H       1  UNL1        0.0426
     43 H           2.0639    1.0286    0.0000 H       1  UNL1        0.0233
     44 H           1.3833    0.4758    0.0000 H       1  UNL1        0.0233
     45 H           1.9361   -0.2048    0.0000 H       1  UNL1        0.0233
@<TRIPOS>BOND
     1     1    11    2
     2     2    13    2
     3     3     8    1
     4     3    18    1
     5     3    19    1
     6     4     5    1
     7     4     6    1
     8     4     7    1
     9     4    13    1
    10     5     8    1
    11     5    10    1
    12     5    11    1
    13     6     9    1
    14     6    12    1
    15     6    21    1
    16     7    15    1
    17     7    22    1
    18     7    23    1
    19     8    24    1
    20     8    25    1
    21     9    11    1
    22     9    26    1
    23     9    27    1
    24    10    17    1
    25    10    28    1
    26    10    29    1
    27    12    14    1
    28    12    30    1
    29    12    31    1
    30    13    16    1
    31    14    16    1
    32    14    20    1
    33    14    32    1
    34    15    18    1
    35    15    33    1
    36    15    34    1
    37    16    35    1
    38    16    36    1
    39    17    19    1
    40    17    37    1
    41    17    38    1
    42    18    39    1
    43    18    40    1
    44    19    41    1
    45    19    42    1
    46    20    43    1
    47    20    44    1
    48    20    45    1
