@<TRIPOS>MOLECULE
IMPHY011742
 54 57 0 0 0
SMALL
GASTEIGER

@<TRIPOS>ATOM
      1 O           5.1350   -1.8696    0.0000 O.3     1  UNL1       -0.3313
      2 O           6.8671   -1.8696    0.0000 O.3     1  UNL1       -0.4606
      3 O           5.1350   -4.8696    0.0000 O.3     1  UNL1       -0.3864
      4 O           3.4030   -3.8696    0.0000 O.3     1  UNL1       -0.3865
      5 O           6.8671   -3.8696    0.0000 O.3     1  UNL1       -0.3829
      6 O           2.5369   -2.3696    0.0000 O.3     1  UNL1       -0.3924
      7 O           8.6230    1.1930    0.0000 O.2     1  UNL1       -0.4544
      8 O           5.1208    1.2096    0.0000 O.3     1  UNL1       -0.5058
      9 O           6.0308    2.7030    0.0000 O.2     1  UNL1       -0.2869
     10 O          12.0987    4.1796    0.0000 O.3     1  UNL1       -0.4951
     11 C           5.1350   -3.8696    0.0000 C.3     1  UNL1        0.1152
     12 C           4.2690   -3.3696    0.0000 C.3     1  UNL1        0.1120
     13 C           6.0010   -3.3696    0.0000 C.3     1  UNL1        0.1454
     14 C           4.2690   -2.3696    0.0000 C.3     1  UNL1        0.1140
     15 C           6.0010   -2.3696    0.0000 C.3     1  UNL1        0.2308
     16 C           3.4030   -1.8696    0.0000 C.3     1  UNL1        0.0731
     17 C           6.8671   -0.8696    0.0000 C.ar    1  UNL1        0.1310
     18 C           7.7671   -0.3453    0.0000 C.ar    1  UNL1        0.0235
     19 C           5.9670   -0.3453    0.0000 C.ar    1  UNL1        0.0226
     20 C           7.7551    0.6963    0.0000 C.ar    1  UNL1        0.1462
     21 C           6.8910    1.1996    0.0000 C.ar    1  UNL1        0.1055
     22 C           5.9790    0.6963    0.0000 C.ar    1  UNL1        0.1347
     23 C           6.8948    2.1996    0.0000 C.ar    1  UNL1        0.1966
     24 C           8.6269    2.1929    0.0000 C.ar    1  UNL1        0.1392
     25 C           7.7628    2.6963    0.0000 C.ar    1  UNL1        0.0288
     26 C           9.4948    2.6896    0.0000 C.ar    1  UNL1        0.0176
     27 C          10.3589    2.1863    0.0000 C.ar    1  UNL1       -0.0476
     28 C           9.4987    3.6896    0.0000 C.ar    1  UNL1       -0.0476
     29 C          11.2269    2.6829    0.0000 C.ar    1  UNL1       -0.0193
     30 C          10.3666    4.1862    0.0000 C.ar    1  UNL1       -0.0193
     31 C          11.2307    3.6829    0.0000 C.ar    1  UNL1        0.1201
     32 C          12.1025    5.1796    0.0000 C.3     1  UNL1        0.0788
     33 H           5.6720   -4.1796    0.0000 H       1  UNL1        0.0648
     34 H           4.2690   -3.9896    0.0000 H       1  UNL1        0.0647
     35 H           6.5380   -3.0596    0.0000 H       1  UNL1        0.0683
     36 H           4.2690   -1.7496    0.0000 H       1  UNL1        0.0647
     37 H           6.0010   -1.7496    0.0000 H       1  UNL1        0.1084
     38 H           3.8015   -1.3946    0.0000 H       1  UNL1        0.0584
     39 H           3.0044   -1.3946    0.0000 H       1  UNL1        0.0584
     40 H           4.5981   -5.1796    0.0000 H       1  UNL1        0.2100
     41 H           3.4030   -4.4896    0.0000 H       1  UNL1        0.2100
     42 H           6.8671   -4.4896    0.0000 H       1  UNL1        0.2102
     43 H           2.0000   -2.0596    0.0000 H       1  UNL1        0.2095
     44 H           8.3064   -0.6511    0.0000 H       1  UNL1        0.0691
     45 H           5.4277   -0.6511    0.0000 H       1  UNL1        0.0691
     46 H           7.7652    3.3163    0.0000 H       1  UNL1        0.0693
     47 H           4.5792    0.9079    0.0000 H       1  UNL1        0.2922
     48 H          10.3565    1.5663    0.0000 H       1  UNL1        0.0626
     49 H           8.9630    4.0017    0.0000 H       1  UNL1        0.0626
     50 H          11.7626    2.3708    0.0000 H       1  UNL1        0.0654
     51 H          10.3690    4.8062    0.0000 H       1  UNL1        0.0654
     52 H          12.7225    5.1772    0.0000 H       1  UNL1        0.0660
     53 H          12.1049    5.7996    0.0000 H       1  UNL1        0.0660
     54 H          11.4825    5.1819    0.0000 H       1  UNL1        0.0660
@<TRIPOS>BOND
     1     1    14    1
     2     1    15    1
     3    15     2    1
     4     2    17    1
     5    11     3    1
     6     3    40    1
     7    12     4    1
     8     4    41    1
     9    13     5    1
    10     5    42    1
    11     6    16    1
    12     6    43    1
    13     7    20   ar
    14     7    24   ar
    15     8    22    1
    16     8    47    1
    17     9    23    2
    18    10    31    1
    19    10    32    1
    20    11    12    1
    21    11    13    1
    22    11    33    1
    23    12    14    1
    24    12    34    1
    25    13    15    1
    26    13    35    1
    27    14    16    1
    28    14    36    1
    29    15    37    1
    30    16    38    1
    31    16    39    1
    32    17    18   ar
    33    17    19   ar
    34    18    20   ar
    35    18    44    1
    36    19    22   ar
    37    19    45    1
    38    20    21   ar
    39    21    22   ar
    40    21    23   ar
    41    23    25   ar
    42    24    25   ar
    43    24    26    1
    44    25    46    1
    45    26    27   ar
    46    26    28   ar
    47    27    29   ar
    48    27    48    1
    49    28    30   ar
    50    28    49    1
    51    29    31   ar
    52    29    50    1
    53    30    31   ar
    54    30    51    1
    55    32    52    1
    56    32    53    1
    57    32    54    1
