@<TRIPOS>MOLECULE
IMPHY012267
 46 45 0 0 0
SMALL
GASTEIGER

@<TRIPOS>ATOM
      1 O           4.2690   -0.5950    0.0000 O.3     1  UNL1       -0.3895
      2 O           2.5369    0.4050    0.0000 O.3     1  UNL1       -0.3925
      3 C           8.5991    0.9050    0.0000 C.3     1  UNL1       -0.0531
      4 C           9.4651    0.4050    0.0000 C.3     1  UNL1       -0.0531
      5 C           7.7331    0.4050    0.0000 C.3     1  UNL1       -0.0531
      6 C          10.3312    0.9050    0.0000 C.3     1  UNL1       -0.0531
      7 C           6.8671    0.9050    0.0000 C.3     1  UNL1       -0.0530
      8 C          11.1972    0.4050    0.0000 C.3     1  UNL1       -0.0531
      9 C           6.0010    0.4050    0.0000 C.3     1  UNL1       -0.0506
     10 C          12.0632    0.9050    0.0000 C.3     1  UNL1       -0.0531
     11 C           5.1350    0.9050    0.0000 C.3     1  UNL1       -0.0247
     12 C          12.9292    0.4050    0.0000 C.3     1  UNL1       -0.0533
     13 C           4.2690    0.4050    0.0000 C.3     1  UNL1        0.0782
     14 C          13.7953    0.9050    0.0000 C.3     1  UNL1       -0.0559
     15 C           3.4030    0.9050    0.0000 C.3     1  UNL1        0.0701
     16 C          14.6613    0.4050    0.0000 C.3     1  UNL1       -0.0653
     17 H           8.9976    1.3800    0.0000 H       1  UNL1        0.0265
     18 H           8.2006    1.3800    0.0000 H       1  UNL1        0.0265
     19 H           9.0666   -0.0699    0.0000 H       1  UNL1        0.0265
     20 H           9.8637   -0.0699    0.0000 H       1  UNL1        0.0265
     21 H           7.3346   -0.0699    0.0000 H       1  UNL1        0.0265
     22 H           8.1316   -0.0699    0.0000 H       1  UNL1        0.0265
     23 H          10.7297    1.3800    0.0000 H       1  UNL1        0.0265
     24 H           9.9326    1.3800    0.0000 H       1  UNL1        0.0265
     25 H           7.2656    1.3800    0.0000 H       1  UNL1        0.0265
     26 H           6.4685    1.3800    0.0000 H       1  UNL1        0.0265
     27 H          10.7987   -0.0699    0.0000 H       1  UNL1        0.0265
     28 H          11.5957   -0.0699    0.0000 H       1  UNL1        0.0265
     29 H           5.6025   -0.0699    0.0000 H       1  UNL1        0.0266
     30 H           6.3996   -0.0699    0.0000 H       1  UNL1        0.0266
     31 H          12.4617    1.3800    0.0000 H       1  UNL1        0.0265
     32 H          11.6647    1.3800    0.0000 H       1  UNL1        0.0265
     33 H           5.5335    1.3800    0.0000 H       1  UNL1        0.0291
     34 H           4.7365    1.3800    0.0000 H       1  UNL1        0.0291
     35 H          12.5307   -0.0699    0.0000 H       1  UNL1        0.0265
     36 H          13.3278   -0.0699    0.0000 H       1  UNL1        0.0265
     37 H           4.8059    0.0950    0.0000 H       1  UNL1        0.0616
     38 H          14.1938    1.3800    0.0000 H       1  UNL1        0.0263
     39 H          13.3967    1.3800    0.0000 H       1  UNL1        0.0263
     40 H           3.8015    1.3800    0.0000 H       1  UNL1        0.0583
     41 H           3.0044    1.3800    0.0000 H       1  UNL1        0.0583
     42 H          14.3513   -0.1319    0.0000 H       1  UNL1        0.0230
     43 H          15.1982    0.0950    0.0000 H       1  UNL1        0.0230
     44 H          14.9713    0.9419    0.0000 H       1  UNL1        0.0230
     45 H           3.7320   -0.9050    0.0000 H       1  UNL1        0.2099
     46 H           2.0000    0.7150    0.0000 H       1  UNL1        0.2095
@<TRIPOS>BOND
     1     1    13    1
     2     1    45    1
     3     2    15    1
     4     2    46    1
     5     3     4    1
     6     3     5    1
     7     3    17    1
     8     3    18    1
     9     4     6    1
    10     4    19    1
    11     4    20    1
    12     5     7    1
    13     5    21    1
    14     5    22    1
    15     6     8    1
    16     6    23    1
    17     6    24    1
    18     7     9    1
    19     7    25    1
    20     7    26    1
    21     8    10    1
    22     8    27    1
    23     8    28    1
    24     9    11    1
    25     9    29    1
    26     9    30    1
    27    10    12    1
    28    10    31    1
    29    10    32    1
    30    11    13    1
    31    11    33    1
    32    11    34    1
    33    12    14    1
    34    12    35    1
    35    12    36    1
    36    13    15    1
    37    13    37    1
    38    14    16    1
    39    14    38    1
    40    14    39    1
    41    15    40    1
    42    15    41    1
    43    16    42    1
    44    16    43    1
    45    16    44    1
