@<TRIPOS>MOLECULE
IMPHY002343
 63 71 0 0 0
SMALL
GASTEIGER

@<TRIPOS>ATOM
      1 C        2668.4400 2514.0400    0.0000 C.3     1  UNL1        0.0001
      2 C        2668.4400 2474.0400    0.0000 C.3     1  UNL1        0.0024
      3 C        2702.9800 2494.1900    0.0000 C.3     1  UNL1        0.0324
      4 C        2702.9800 2534.4900    0.0000 C.3     1  UNL1        0.0096
      5 C        2737.6200 2554.6400    0.0000 C.3     1  UNL1        0.0800
      6 C        2772.1600 2534.4900    0.0000 C.3     1  UNL1        0.1892
      7 C        2772.1600 2494.1900    0.0000 C.3     1  UNL1        0.0587
      8 O        2797.5700 2478.1100    0.0000 O.3     1  UNL1       -0.3342
      9 C        2763.0300 2457.9700    0.0000 C.3     1  UNL1        0.1446
     10 O        2806.7000 2554.6400    0.0000 O.3     1  UNL1       -0.3338
     11 C        2806.7000 2595.0400    0.0000 C.3     1  UNL1        0.1513
     12 C        2772.1600 2615.1900    0.0000 C.3     1  UNL1        0.0792
     13 C        2737.6200 2595.0400    0.0000 C.3     1  UNL1        0.1371
     14 C        2698.1100 2587.9900    0.0000 C.3     1  UNL1        0.0335
     15 O        2720.0500 2642.9800    0.0000 O.3     1  UNL1       -0.2251
     16 C        2772.1600 2655.1900    0.0000 C.2     1  UNL1       -0.0299
     17 C        2806.8000 2675.1400    0.0000 C.2     1  UNL1       -0.0477
     18 C        2841.4400 2655.1900    0.0000 C.3     1  UNL1        0.0260
     19 C        2806.8000 2715.1400    0.0000 C.3     1  UNL1        0.0260
     20 C        2668.4400 2554.6400    0.0000 C.3     1  UNL1        0.0003
     21 C        2633.9000 2534.4900    0.0000 C.3     1  UNL1        0.0000
     22 C        2633.9000 2494.1900    0.0000 C.3     1  UNL1        0.0001
     23 C        2599.3500 2474.0400    0.0000 C.3     1  UNL1        0.0002
     24 C        2599.3500 2514.0400    0.0000 C.3     1  UNL1        0.0000
     25 C        2599.3500 2433.7500    0.0000 C.3     1  UNL1        0.0023
     26 C        2633.9000 2413.6000    0.0000 C.3     1  UNL1        0.0001
     27 C        2668.4400 2433.7500    0.0000 C.3     1  UNL1        0.0001
     28 C        2564.8100 2413.6000    0.0000 C.3     1  UNL1        0.0251
     29 C        2539.1100 2382.9300    0.0000 C.3     1  UNL1        0.0024
     30 C        2590.5200 2382.9300    0.0000 C.3     1  UNL1        0.0024
     31 C        2530.2700 2433.7500    0.0000 C.3     1  UNL1        0.1177
     32 C        2530.2700 2474.0400    0.0000 C.3     1  UNL1        0.0296
     33 C        2564.8100 2494.1900    0.0000 C.3     1  UNL1        0.0025
     34 O        2495.6300 2413.7000    0.0000 O.3     1  UNL1       -0.3311
     35 C        2460.9900 2433.7500    0.0000 C.3     1  UNL1        0.2694
     36 O        2427.8400 2409.2300    0.0000 O.3     1  UNL1       -0.3257
     37 C        2396.1800 2433.7500    0.0000 C.3     1  UNL1        0.1803
     38 C        2409.0800 2471.1700    0.0000 C.3     1  UNL1        0.2167
     39 C        2449.3800 2471.1700    0.0000 C.3     1  UNL1        0.2404
     40 O        2472.9000 2503.5200    0.0000 O.3     1  UNL1       -0.2149
     41 O        2386.1500 2503.9200    0.0000 O.3     1  UNL1       -0.2175
     42 C        2361.5400 2413.7000    0.0000 C.3     1  UNL1        0.1770
     43 O        2361.5400 2364.8600    0.0000 O.3     1  UNL1       -0.3259
     44 C        2326.9000 2344.9100    0.0000 C.3     1  UNL1        0.2695
     45 C        2292.2600 2364.8600    0.0000 C.3     1  UNL1        0.2406
     46 O        2292.2600 2404.8600    0.0000 O.3     1  UNL1       -0.2149
     47 C        2257.6200 2344.9100    0.0000 C.3     1  UNL1        0.2198
     48 O        2222.8800 2364.8600    0.0000 O.3     1  UNL1       -0.2174
     49 C        2257.6200 2304.9100    0.0000 C.3     1  UNL1        0.2143
     50 C        2292.2600 2284.8600    0.0000 C.3     1  UNL1        0.1803
     51 O        2326.9000 2304.9100    0.0000 O.3     1  UNL1       -0.3257
     52 O        2222.8800 2284.8600    0.0000 O.3     1  UNL1       -0.2176
     53 C        2326.9000 2433.7500    0.0000 C.3     1  UNL1        0.1769
     54 O        2326.9000 2473.7500    0.0000 O.3     1  UNL1       -0.3259
     55 C        2292.2600 2493.7000    0.0000 C.3     1  UNL1        0.2695
     56 O        2259.2100 2469.2800    0.0000 O.3     1  UNL1       -0.3256
     57 C        2227.4400 2493.7000    0.0000 C.3     1  UNL1        0.1836
     58 C        2240.4500 2531.1200    0.0000 C.3     1  UNL1        0.2168
     59 C        2280.7400 2531.1200    0.0000 C.3     1  UNL1        0.2404
     60 O        2304.2700 2563.4700    0.0000 O.3     1  UNL1       -0.2149
     61 O        2217.5200 2563.8700    0.0000 O.3     1  UNL1       -0.2175
     62 C        2193.2000 2473.1500    0.0000 C.3     1  UNL1        0.2142
     63 O        2158.5600 2493.1000    0.0000 O.3     1  UNL1       -0.2176
@<TRIPOS>BOND
     1     2     1    1
     2     2     3    1
     3     2    22    1
     4     2    27    1
     5     3     4    1
     6     3     7    1
     7     3     9    1
     8     4    20    1
     9     5     4    1
    10     5     6    1
    11     5    13    1
    12     6     7    1
    13     6     8    1
    14     6    10    1
    15     9     8    1
    16    10    11    1
    17    12    11    1
    18    12    16    1
    19    13    12    1
    20    13    14    1
    21    13    15    1
    22    16    17    2
    23    17    18    1
    24    17    19    1
    25    21    20    1
    26    22    21    1
    27    22    23    1
    28    23    24    1
    29    23    25    1
    30    23    33    1
    31    25    28    1
    32    25    26    1
    33    27    26    1
    34    28    29    1
    35    28    30    1
    36    28    31    1
    37    31    34    1
    38    32    31    1
    39    33    32    1
    40    35    34    1
    41    35    36    1
    42    35    39    1
    43    37    36    1
    44    37    38    1
    45    37    42    1
    46    38    41    1
    47    39    38    1
    48    39    40    1
    49    42    43    1
    50    42    53    1
    51    44    43    1
    52    44    45    1
    53    44    51    1
    54    45    46    1
    55    45    47    1
    56    47    48    1
    57    47    49    1
    58    49    52    1
    59    50    49    1
    60    51    50    1
    61    53    54    1
    62    55    54    1
    63    55    56    1
    64    55    59    1
    65    56    57    1
    66    57    58    1
    67    57    62    1
    68    58    61    1
    69    59    58    1
    70    59    60    1
    71    62    63    1
