@<TRIPOS>MOLECULE
IMPHY005913
 41 43 0 0 0
SMALL
GASTEIGER

@<TRIPOS>ATOM
      1 O           6.3580   -0.9259    0.0000 O.2     1  UNL1       -0.4470
      2 O           4.5981   -1.8913    0.0000 O.3     1  UNL1       -0.4884
      3 O           8.1282    1.1329    0.0000 O.3     1  UNL1       -0.4883
      4 O           2.8660    1.1087    0.0000 O.3     1  UNL1       -0.4884
      5 O           4.5981    2.1087    0.0000 O.3     1  UNL1       -0.5027
      6 O           2.8660   -0.8913    0.0000 O.3     1  UNL1       -0.5007
      7 O           6.3465    2.1433    0.0000 O.2     1  UNL1       -0.2830
      8 C           5.4641    0.6087    0.0000 C.ar    1  UNL1        0.1165
      9 C           5.4641   -0.3913    0.0000 C.ar    1  UNL1        0.1884
     10 C           7.2641   -0.4121    0.0000 C.ar    1  UNL1        0.1810
     11 C           4.5981   -0.8913    0.0000 C.ar    1  UNL1        0.2087
     12 C           4.5981    1.1087    0.0000 C.ar    1  UNL1        0.1772
     13 C           6.3580    1.1434    0.0000 C.ar    1  UNL1        0.2383
     14 C           7.2641    0.6296    0.0000 C.ar    1  UNL1        0.2107
     15 C           3.7320    0.6087    0.0000 C.ar    1  UNL1        0.2078
     16 C           3.7320   -0.3913    0.0000 C.ar    1  UNL1        0.2085
     17 C           8.1282   -0.9154    0.0000 C.ar    1  UNL1        0.0211
     18 C           8.1244   -1.9154    0.0000 C.ar    1  UNL1       -0.0510
     19 C           8.9962   -0.4188    0.0000 C.ar    1  UNL1       -0.0510
     20 C           8.9884   -2.4187    0.0000 C.ar    1  UNL1       -0.0611
     21 C           9.8602   -0.9221    0.0000 C.ar    1  UNL1       -0.0611
     22 C           9.8564   -1.9221    0.0000 C.ar    1  UNL1       -0.0617
     23 C           3.7320   -2.3913    0.0000 C.3     1  UNL1        0.0791
     24 C           8.1244    2.1329    0.0000 C.3     1  UNL1        0.0791
     25 C           2.0000    0.6087    0.0000 C.3     1  UNL1        0.0791
     26 H           7.5862   -2.2233    0.0000 H       1  UNL1        0.0625
     27 H           8.9985    0.2012    0.0000 H       1  UNL1        0.0625
     28 H           4.0611    2.4187    0.0000 H       1  UNL1        0.2923
     29 H           8.9860   -3.0387    0.0000 H       1  UNL1        0.0618
     30 H          10.3984   -0.6142    0.0000 H       1  UNL1        0.0618
     31 H           2.3291   -0.5813    0.0000 H       1  UNL1        0.2924
     32 H          10.3921   -2.2342    0.0000 H       1  UNL1        0.0618
     33 H           3.4220   -1.8543    0.0000 H       1  UNL1        0.0660
     34 H           3.1951   -2.7013    0.0000 H       1  UNL1        0.0660
     35 H           4.0420   -2.9282    0.0000 H       1  UNL1        0.0660
     36 H           8.7443    2.1353    0.0000 H       1  UNL1        0.0660
     37 H           8.1220    2.7529    0.0000 H       1  UNL1        0.0660
     38 H           7.5044    2.1305    0.0000 H       1  UNL1        0.0660
     39 H           1.6900    1.1457    0.0000 H       1  UNL1        0.0660
     40 H           1.4631    0.2987    0.0000 H       1  UNL1        0.0660
     41 H           2.3100    0.0718    0.0000 H       1  UNL1        0.0660
@<TRIPOS>BOND
     1     1     9   ar
     2     1    10   ar
     3     2    11    1
     4     2    23    1
     5     3    14    1
     6     3    24    1
     7     4    15    1
     8     4    25    1
     9     5    12    1
    10     5    28    1
    11     6    16    1
    12     6    31    1
    13     7    13    2
    14     8     9   ar
    15     8    12   ar
    16     8    13   ar
    17     9    11   ar
    18    10    14   ar
    19    10    17    1
    20    11    16   ar
    21    12    15   ar
    22    13    14   ar
    23    15    16   ar
    24    17    18   ar
    25    17    19   ar
    26    18    20   ar
    27    18    26    1
    28    19    21   ar
    29    19    27    1
    30    20    22   ar
    31    20    29    1
    32    21    22   ar
    33    21    30    1
    34    22    32    1
    35    23    33    1
    36    23    34    1
    37    23    35    1
    38    24    36    1
    39    24    37    1
    40    24    38    1
    41    25    39    1
    42    25    40    1
    43    25    41    1
