@<TRIPOS>MOLECULE
IMPHY001295
 51 56 0 0 0
SMALL
GASTEIGER

@<TRIPOS>ATOM
      1 O           4.1537    1.8817    0.0000 O.3     1  UNL1       -0.3905
      2 O           8.0273    0.2939    0.0000 O.3     1  UNL1       -0.3769
      3 O           2.6064   -1.8557    0.0000 O.3     1  UNL1       -0.5049
      4 N           6.5260   -0.2724    0.0000 N.3     1  UNL1       -0.2693
      5 N           4.4360   -1.2279    0.0000 N.pl3   1  UNL1       -0.3244
      6 C           4.8615    0.0814    0.0000 C.3     1  UNL1        0.0451
      7 C           6.8324    1.1691    0.0000 C.3     1  UNL1        0.0049
      8 C           6.2630    0.5368    0.0000 C.3     1  UNL1        0.0195
      9 C           5.9566   -0.9047    0.0000 C.3     1  UNL1        0.0327
     10 C           7.0518   -1.8908    0.0000 C.3     1  UNL1       -0.0265
     11 C           5.1244   -0.7278    0.0000 C.3     1  UNL1        0.0510
     12 C           4.8603    1.1740    0.0000 C.3     1  UNL1        0.0712
     13 C           5.4308    0.7137    0.0000 C.3     1  UNL1       -0.0230
     14 C           6.2196   -1.7139    0.0000 C.3     1  UNL1       -0.0319
     15 C           7.6211   -1.2585    0.0000 C.3     1  UNL1        0.0018
     16 C           7.3582   -0.4493    0.0000 C.3     1  UNL1        0.1123
     17 C           4.0106    0.0814    0.0000 C.ar    1  UNL1       -0.0123
     18 C           3.7477   -0.7278    0.0000 C.ar    1  UNL1        0.0757
     19 C           8.5993   -1.4664    0.0000 C.3     1  UNL1       -0.0492
     20 C           3.4413    0.7137    0.0000 C.ar    1  UNL1       -0.0559
     21 C           4.4445   -2.2278    0.0000 C.3     1  UNL1        0.0012
     22 C           2.9155   -0.9047    0.0000 C.ar    1  UNL1        0.1381
     23 C           8.9083   -2.4174    0.0000 C.3     1  UNL1       -0.0649
     24 C           2.6091    0.5368    0.0000 C.ar    1  UNL1       -0.0579
     25 C           2.3462   -0.2724    0.0000 C.ar    1  UNL1       -0.0183
     26 H           7.4123    1.7906    0.0000 H       1  UNL1        0.0344
     27 H           6.0808    1.3671    0.0000 H       1  UNL1        0.0467
     28 H           5.5418   -1.3654    0.0000 H       1  UNL1        0.0482
     29 H           7.3145   -2.6992    0.0000 H       1  UNL1        0.0309
     30 H           5.1250   -1.5778    0.0000 H       1  UNL1        0.0525
     31 H           4.2875    0.9367    0.0000 H       1  UNL1        0.0606
     32 H           5.6630    1.2886    0.0000 H       1  UNL1        0.0290
     33 H           4.9050    1.0423    0.0000 H       1  UNL1        0.0290
     34 H           5.6056   -1.8002    0.0000 H       1  UNL1        0.0284
     35 H           6.1979   -2.3335    0.0000 H       1  UNL1        0.0284
     36 H           7.8127   -1.8481    0.0000 H       1  UNL1        0.0342
     37 H           7.9647   -0.5782    0.0000 H       1  UNL1        0.0770
     38 H           9.2132   -1.3801    0.0000 H       1  UNL1        0.0267
     39 H           8.6209   -0.8468    0.0000 H       1  UNL1        0.0267
     40 H           4.3146    2.4804    0.0000 H       1  UNL1        0.2098
     41 H           3.6329    1.3034    0.0000 H       1  UNL1        0.0621
     42 H           3.8245   -2.2331    0.0000 H       1  UNL1        0.0428
     43 H           4.4497   -2.8478    0.0000 H       1  UNL1        0.0428
     44 H           5.0645   -2.2226    0.0000 H       1  UNL1        0.0428
     45 H           8.6338    0.1650    0.0000 H       1  UNL1        0.2115
     46 H           8.3186   -2.6090    0.0000 H       1  UNL1        0.0230
     47 H           9.0999   -3.0071    0.0000 H       1  UNL1        0.0230
     48 H           9.4979   -2.2259    0.0000 H       1  UNL1        0.0230
     49 H           2.1942    0.9976    0.0000 H       1  UNL1        0.0619
     50 H           1.7397   -0.4013    0.0000 H       1  UNL1        0.0655
     51 H           2.0000   -1.9846    0.0000 H       1  UNL1        0.2922
@<TRIPOS>BOND
     1    12     1    1
     2     1    40    1
     3    16     2    1
     4     2    45    1
     5     3    22    1
     6     3    51    1
     7     4     8    1
     8     4     9    1
     9     4    16    1
    10     5    11    1
    11     5    18    1
    12     5    21    1
    13     6    11    1
    14     6    12    1
    15     6    13    1
    16     6    17    1
    17     7     8    1
    18     7    10    1
    19     7    12    1
    20     7    26    1
    21     8    13    1
    22     8    27    1
    23     9    11    1
    24     9    14    1
    25     9    28    1
    26    10    14    1
    27    10    15    1
    28    10    29    1
    29    11    30    1
    30    12    31    1
    31    13    32    1
    32    13    33    1
    33    14    34    1
    34    14    35    1
    35    15    16    1
    36    15    19    1
    37    15    36    1
    38    16    37    1
    39    17    18   ar
    40    17    20   ar
    41    18    22   ar
    42    19    23    1
    43    19    38    1
    44    19    39    1
    45    20    24   ar
    46    20    41    1
    47    21    42    1
    48    21    43    1
    49    21    44    1
    50    22    25   ar
    51    23    46    1
    52    23    47    1
    53    23    48    1
    54    24    25   ar
    55    24    49    1
    56    25    50    1
