@<TRIPOS>MOLECULE
IMPHY010619
 71 76 0 0 0
SMALL
GASTEIGER

@<TRIPOS>ATOM
      1 O          11.4916   -5.3198    0.0000 O.3     1  UNL1       -0.3125
      2 C          10.3401   -5.9876    0.0000 C.3     1  UNL1        0.3333
      3 C           9.1887   -5.3198    0.0000 C.3     1  UNL1        0.2818
      4 C           9.1887   -3.9841    0.0000 C.3     1  UNL1        0.2570
      5 C          10.3401   -3.3162    0.0000 C.3     1  UNL1        0.2430
      6 C          11.4916   -3.9841    0.0000 C.3     1  UNL1        0.2060
      7 O          10.3401   -7.3463    0.0000 O.3     1  UNL1       -0.4495
      8 C          11.4916   -7.9681    0.0000 C.ar    1  UNL1        0.1475
      9 C          11.4916   -9.3268    0.0000 C.ar    1  UNL1        0.0749
     10 C          12.6431   -9.9717    0.0000 C.ar    1  UNL1        0.1574
     11 C          13.7945   -9.3268    0.0000 C.ar    1  UNL1        0.1083
     12 C          14.9460   -9.9717    0.0000 C.ar    1  UNL1        0.2046
     13 C          16.1205   -9.3268    0.0000 C.ar    1  UNL1        0.0797
     14 C          16.1205   -7.9681    0.0000 C.ar    1  UNL1        0.1484
     15 O          14.9460   -7.3463    0.0000 O.2     1  UNL1       -0.4531
     16 C          13.7945   -7.9681    0.0000 C.ar    1  UNL1        0.1543
     17 C          12.6431   -7.3463    0.0000 C.ar    1  UNL1        0.0748
     18 O           8.0372   -5.9876    0.0000 O.3     1  UNL1       -0.4386
     19 C           8.0372   -7.3463    0.0000 C.2     1  UNL1        0.3416
     20 O           9.1887   -7.9681    0.0000 O.2     1  UNL1       -0.2449
     21 O           8.0372   -3.3162    0.0000 O.3     1  UNL1       -0.4443
     22 C           6.8857   -3.9841    0.0000 C.2     1  UNL1        0.3177
     23 O           6.8857   -5.3198    0.0000 O.2     1  UNL1       -0.2501
     24 O          10.3401   -2.0035    0.0000 O.3     1  UNL1       -0.4456
     25 C           9.1887   -1.3127    0.0000 C.2     1  UNL1        0.3176
     26 O           8.0372   -2.0035    0.0000 O.2     1  UNL1       -0.2501
     27 C          12.6431   -3.3162    0.0000 C.3     1  UNL1        0.2420
     28 O          12.6431   -2.0035    0.0000 O.3     1  UNL1       -0.4426
     29 C          13.7945   -1.3127    0.0000 C.2     1  UNL1        0.3415
     30 O          13.7945    0.0000    0.0000 O.2     1  UNL1       -0.2449
     31 O          12.6431  -11.3304    0.0000 O.3     1  UNL1       -0.4238
     32 C          11.4916  -11.9982    0.0000 C.2     1  UNL1        0.3220
     33 O          10.3401  -11.3304    0.0000 O.2     1  UNL1       -0.2497
     34 O          14.9460  -11.3304    0.0000 O.2     1  UNL1       -0.2863
     35 C          17.2489   -7.3463    0.0000 C.ar    1  UNL1        0.0349
     36 C          17.2489   -5.9876    0.0000 C.ar    1  UNL1        0.0062
     37 C          18.4004   -5.3198    0.0000 C.ar    1  UNL1        0.0377
     38 C          19.5749   -5.9876    0.0000 C.ar    1  UNL1        0.1484
     39 C          19.5749   -7.3463    0.0000 C.ar    1  UNL1        0.0377
     40 C          18.4004   -7.9681    0.0000 C.ar    1  UNL1        0.0062
     41 C           6.8627   -7.9451    0.0000 C.2     1  UNL1        0.0819
     42 C           5.7343   -7.3003    0.0000 C.2     1  UNL1        0.0067
     43 C           4.5828   -7.9451    0.0000 C.ar    1  UNL1        0.0004
     44 C           3.4314   -7.3003    0.0000 C.ar    1  UNL1        0.0031
     45 C           2.3029   -7.9451    0.0000 C.ar    1  UNL1        0.0376
     46 C           2.3029   -9.2808    0.0000 C.ar    1  UNL1        0.1484
     47 C           3.4314   -9.9256    0.0000 C.ar    1  UNL1        0.0376
     48 C           4.5828   -9.2808    0.0000 C.ar    1  UNL1        0.0031
     49 C           5.7343   -3.3162    0.0000 C.3     1  UNL1        0.1212
     50 C           9.1887    0.0000    0.0000 C.3     1  UNL1        0.1212
     51 C          14.9460   -2.0035    0.0000 C.2     1  UNL1        0.0819
     52 C          16.1205   -1.3127    0.0000 C.2     1  UNL1        0.0067
     53 C          17.2489   -2.0035    0.0000 C.ar    1  UNL1        0.0004
     54 C          18.4004   -1.3127    0.0000 C.ar    1  UNL1        0.0031
     55 C          19.5749   -2.0035    0.0000 C.ar    1  UNL1        0.0376
     56 C          19.5749   -3.3162    0.0000 C.ar    1  UNL1        0.1484
     57 C          18.4004   -3.9841    0.0000 C.ar    1  UNL1        0.0376
     58 C          17.2489   -3.3162    0.0000 C.ar    1  UNL1        0.0031
     59 C          11.4916  -13.3339    0.0000 C.3     1  UNL1        0.1216
     60 O          20.7263   -5.3198    0.0000 O.3     1  UNL1       -0.4241
     61 C          21.8778   -5.9876    0.0000 C.2     1  UNL1        0.3220
     62 O          21.8778   -7.3233    0.0000 O.2     1  UNL1       -0.2497
     63 O           1.1515   -9.9256    0.0000 O.3     1  UNL1       -0.4241
     64 C           1.1515  -11.2613    0.0000 C.2     1  UNL1        0.3220
     65 O           2.3029  -11.9061    0.0000 O.2     1  UNL1       -0.2497
     66 O          20.7263   -3.9841    0.0000 O.3     1  UNL1       -0.4241
     67 C          21.8778   -3.3162    0.0000 C.2     1  UNL1        0.3220
     68 O          21.8778   -2.0035    0.0000 O.2     1  UNL1       -0.2497
     69 C          23.0293   -5.3428    0.0000 C.3     1  UNL1        0.1216
     70 C           0.0000  -11.9061    0.0000 C.3     1  UNL1        0.1216
     71 C          23.0293   -3.9841    0.0000 C.3     1  UNL1        0.1216
@<TRIPOS>BOND
     1     1     2    1
     2     1     6    1
     3     2     7    1
     4     2     3    1
     5     3     4    1
     6     3    18    1
     7     4    21    1
     8     4     5    1
     9     5     6    1
    10     5    24    1
    11     6    27    1
    12     7     8    1
    13     8    17   ar
    14     8     9   ar
    15     9    10   ar
    16    10    11   ar
    17    10    31    1
    18    11    12   ar
    19    11    16   ar
    20    12    13   ar
    21    12    34    2
    22    13    14   ar
    23    14    15   ar
    24    14    35    1
    25    15    16   ar
    26    16    17   ar
    27    18    19    1
    28    19    20    2
    29    19    41    1
    30    21    22    1
    31    22    23    2
    32    22    49    1
    33    24    25    1
    34    25    26    2
    35    25    50    1
    36    27    28    1
    37    28    29    1
    38    29    30    2
    39    29    51    1
    40    31    32    1
    41    32    33    2
    42    32    59    1
    43    35    36   ar
    44    35    40   ar
    45    36    37   ar
    46    37    38   ar
    47    38    39   ar
    48    38    60    1
    49    39    40   ar
    50    41    42    2
    51    42    43    1
    52    43    44   ar
    53    43    48   ar
    54    44    45   ar
    55    45    46   ar
    56    46    47   ar
    57    46    63    1
    58    47    48   ar
    59    51    52    2
    60    52    53    1
    61    53    54   ar
    62    53    58   ar
    63    54    55   ar
    64    55    56   ar
    65    56    57   ar
    66    56    66    1
    67    57    58   ar
    68    60    61    1
    69    61    62    2
    70    61    69    1
    71    63    64    1
    72    64    65    2
    73    64    70    1
    74    66    67    1
    75    67    68    2
    76    67    71    1
