@<TRIPOS>MOLECULE
IMPHY005412
 106 116 0 0 0
SMALL
GASTEIGER

@<TRIPOS>ATOM
      1 O           6.2586   -0.2800    0.0000 O.3     1  UNL1       -0.3374
      2 O           8.9087    1.2685    0.0000 O.3     1  UNL1       -0.4501
      3 O           8.9286   -0.7663    0.0000 O.3     1  UNL1       -0.4512
      4 O           7.1766    2.2685    0.0000 O.3     1  UNL1       -0.4488
      5 O           5.4065    1.2716    0.0000 O.3     1  UNL1       -0.3641
      6 O           6.3063   -2.3074    0.0000 O.3     1  UNL1       -0.4583
      7 O           8.0427    1.7685    0.0000 O.2     1  UNL1       -0.2449
      8 O          10.4896   -2.2066    0.0000 O.2     1  UNL1       -0.2449
      9 O           8.9087    3.2685    0.0000 O.2     1  UNL1       -0.2449
     10 O           8.4950   -2.7985    0.0000 O.2     1  UNL1       -0.4178
     11 O          10.3861   -5.9193    0.0000 O.2     1  UNL1       -0.4178
     12 O           6.0703   -5.2753    0.0000 O.3     1  UNL1       -0.4476
     13 O           6.4447   -4.1962    0.0000 O.2     1  UNL1       -0.2448
     14 O          10.6571    5.3031    0.0000 O.3     1  UNL1       -0.5028
     15 O           9.7965    5.7999    0.0000 O.3     1  UNL1       -0.5028
     16 O          13.1051   -2.4562    0.0000 O.3     1  UNL1       -0.5028
     17 O          12.8350   -3.4067    0.0000 O.3     1  UNL1       -0.5028
     18 O          12.3342   -5.3662    0.0000 O.3     1  UNL1       -0.5009
     19 O          12.4388    2.2443    0.0000 O.3     1  UNL1       -0.5032
     20 O          12.1758    0.9595    0.0000 O.3     1  UNL1       -0.5032
     21 O          12.4388    4.2926    0.0000 O.3     1  UNL1       -0.5009
     22 O           6.2567    5.8136    0.0000 O.3     1  UNL1       -0.5032
     23 O           8.0306    6.8377    0.0000 O.3     1  UNL1       -0.5009
     24 O          13.6353   -0.4777    0.0000 O.3     1  UNL1       -0.5009
     25 O           8.7556   -1.8261    0.0000 O.2     1  UNL1       -0.2445
     26 O           7.0193   -3.0772    0.0000 O.3     1  UNL1       -0.5009
     27 O           9.1394   -7.1498    0.0000 O.2     1  UNL1       -0.2445
     28 O           4.3299   -6.3233    0.0000 O.3     1  UNL1       -0.5008
     29 O           2.5247   -3.2784    0.0000 O.3     1  UNL1       -0.5032
     30 O           2.5405   -5.3266    0.0000 O.3     1  UNL1       -0.5008
     31 C           8.0427    0.7685    0.0000 C.3     1  UNL1        0.1840
     32 C           8.0587   -0.2730    0.0000 C.3     1  UNL1        0.1729
     33 C           7.1766    1.2685    0.0000 C.3     1  UNL1        0.1938
     34 C           7.1607   -0.8008    0.0000 C.3     1  UNL1        0.1361
     35 C           6.2666    0.7616    0.0000 C.3     1  UNL1        0.1981
     36 C           7.1684   -1.8008    0.0000 C.3     1  UNL1        0.1226
     37 C           8.9087    2.2685    0.0000 C.2     1  UNL1        0.3405
     38 C           9.7161   -1.5728    0.0000 C.2     1  UNL1        0.3405
     39 C           8.0427    2.7685    0.0000 C.2     1  UNL1        0.3406
     40 C           9.7747    2.7685    0.0000 C.ar    1  UNL1        0.0740
     41 C          10.6800   -1.3066    0.0000 C.ar    1  UNL1        0.0740
     42 C           8.0427    3.7685    0.0000 C.ar    1  UNL1        0.0740
     43 C           9.7747    3.7685    0.0000 C.ar    1  UNL1        0.0458
     44 C           8.9087    4.2685    0.0000 C.ar    1  UNL1        0.0458
     45 C          11.3926   -2.0082    0.0000 C.ar    1  UNL1        0.0458
     46 C          11.1412   -2.9761    0.0000 C.ar    1  UNL1        0.0464
     47 C           6.0549   -3.2753    0.0000 C.2     1  UNL1        0.3431
     48 C          10.1773   -3.2423    0.0000 C.ar    1  UNL1        0.0823
     49 C           9.9259   -4.2102    0.0000 C.ar    1  UNL1        0.0474
     50 C          10.6687    2.2338    0.0000 C.ar    1  UNL1       -0.0017
     51 C          10.9263   -0.2944    0.0000 C.ar    1  UNL1       -0.0017
     52 C           7.1327    4.2753    0.0000 C.ar    1  UNL1       -0.0017
     53 C           8.9620   -4.4765    0.0000 C.ar    1  UNL1        0.0468
     54 C          10.6687    4.3031    0.0000 C.ar    1  UNL1        0.1708
     55 C           8.9248    5.3100    0.0000 C.ar    1  UNL1        0.1708
     56 C          12.4007   -1.7464    0.0000 C.ar    1  UNL1        0.1708
     57 C          10.6415   -4.9313    0.0000 C.ar    1  UNL1        0.1854
     58 C          11.8732   -3.6804    0.0000 C.ar    1  UNL1        0.1708
     59 C           5.1928   -3.7820    0.0000 C.ar    1  UNL1        0.1084
     60 C           8.2495   -3.7748    0.0000 C.ar    1  UNL1        0.1854
     61 C           8.6839   -5.4583    0.0000 C.ar    1  UNL1        0.0745
     62 C          11.5747    2.7476    0.0000 C.ar    1  UNL1        0.1628
     63 C          11.6217   -4.6646    0.0000 C.ar    1  UNL1        0.2028
     64 C          11.5747    3.7893    0.0000 C.ar    1  UNL1        0.2012
     65 C          11.9281   -0.0094    0.0000 C.ar    1  UNL1        0.1628
     66 C           7.1246    5.3169    0.0000 C.ar    1  UNL1        0.1628
     67 C           8.0267    5.8377    0.0000 C.ar    1  UNL1        0.2012
     68 C          12.6703   -0.7402    0.0000 C.ar    1  UNL1        0.2012
     69 C           9.4654   -2.5305    0.0000 C.ar    1  UNL1        0.3460
     70 C           5.2005   -4.7820    0.0000 C.ar    1  UNL1        0.1876
     71 C           7.2856   -4.0411    0.0000 C.ar    1  UNL1        0.2031
     72 C           7.0342   -5.0090    0.0000 C.ar    1  UNL1        0.1743
     73 C           7.7221   -5.7365    0.0000 C.ar    1  UNL1       -0.0009
     74 C           9.4008   -6.1846    0.0000 C.ar    1  UNL1        0.3454
     75 C           4.2947   -3.2542    0.0000 C.ar    1  UNL1        0.0013
     76 C           4.3107   -5.3235    0.0000 C.ar    1  UNL1        0.2060
     77 C           3.3926   -3.7750    0.0000 C.ar    1  UNL1        0.1630
     78 C           3.4007   -4.8166    0.0000 C.ar    1  UNL1        0.2044
     79 H           8.7821    0.3492    0.0000 H       1  UNL1        0.0812
     80 H           8.0718   -1.1229    0.0000 H       1  UNL1        0.0801
     81 H           6.4438    1.6991    0.0000 H       1  UNL1        0.0825
     82 H           6.4279   -1.2314    0.0000 H       1  UNL1        0.0670
     83 H           6.2750    1.3816    0.0000 H       1  UNL1        0.0948
     84 H           7.3850   -2.3817    0.0000 H       1  UNL1        0.0725
     85 H           7.7781   -1.6884    0.0000 H       1  UNL1        0.0725
     86 H           4.8660    0.9678    0.0000 H       1  UNL1        0.2126
     87 H          10.6615    1.6138    0.0000 H       1  UNL1        0.0664
     88 H          10.4795    0.1354    0.0000 H       1  UNL1        0.0664
     89 H           6.5994    3.9591    0.0000 H       1  UNL1        0.0664
     90 H           7.5592   -6.3347    0.0000 H       1  UNL1        0.0664
     91 H           4.2971   -2.6342    0.0000 H       1  UNL1        0.0665
     92 H          11.1904    5.6192    0.0000 H       1  UNL1        0.2923
     93 H           9.8037    6.4199    0.0000 H       1  UNL1        0.2923
     94 H          13.7046   -2.2980    0.0000 H       1  UNL1        0.2923
     95 H          13.2801   -3.8383    0.0000 H       1  UNL1        0.2923
     96 H          12.1783   -5.9663    0.0000 H       1  UNL1        0.2924
     97 H          12.9770    2.5522    0.0000 H       1  UNL1        0.2923
     98 H          12.7727    1.1269    0.0000 H       1  UNL1        0.2923
     99 H          12.9770    3.9847    0.0000 H       1  UNL1        0.2924
    100 H           5.7210    5.5015    0.0000 H       1  UNL1        0.2923
    101 H           7.4948    7.1498    0.0000 H       1  UNL1        0.2924
    102 H          13.7934    0.1218    0.0000 H       1  UNL1        0.2924
    103 H           7.4543   -2.6354    0.0000 H       1  UNL1        0.2924
    104 H           3.7991   -6.6436    0.0000 H       1  UNL1        0.2924
    105 H           2.5223   -2.6584    0.0000 H       1  UNL1        0.2923
    106 H           2.0000   -5.0228    0.0000 H       1  UNL1        0.2924
@<TRIPOS>BOND
     1     1    34    1
     2     1    35    1
     3     2    31    1
     4     2    37    1
     5     3    32    1
     6     3    38    1
     7     4    33    1
     8     4    39    1
     9     5    35    1
    10     5    86    1
    11     6    36    1
    12     6    47    1
    13     7    37    2
    14     8    38    2
    15     9    39    2
    16    10    60   ar
    17    10    69   ar
    18    11    57   ar
    19    11    74   ar
    20    12    70    1
    21    12    72    1
    22    13    47    2
    23    14    54    1
    24    14    92    1
    25    15    55    1
    26    15    93    1
    27    16    56    1
    28    16    94    1
    29    17    58    1
    30    17    95    1
    31    18    63    1
    32    18    96    1
    33    19    62    1
    34    19    97    1
    35    20    65    1
    36    20    98    1
    37    21    64    1
    38    21    99    1
    39    22    66    1
    40    22   100    1
    41    23    67    1
    42    23   101    1
    43    24    68    1
    44    24   102    1
    45    25    69    2
    46    26    71    1
    47    26   103    1
    48    27    74    2
    49    28    76    1
    50    28   104    1
    51    29    77    1
    52    29   105    1
    53    30    78    1
    54    30   106    1
    55    31    32    1
    56    31    33    1
    57    31    79    1
    58    32    34    1
    59    32    80    1
    60    33    35    1
    61    33    81    1
    62    34    36    1
    63    34    82    1
    64    35    83    1
    65    36    84    1
    66    36    85    1
    67    37    40    1
    68    38    41    1
    69    39    42    1
    70    40    43   ar
    71    40    50   ar
    72    41    45   ar
    73    41    51   ar
    74    42    44   ar
    75    42    52   ar
    76    43    44    1
    77    43    54   ar
    78    44    55   ar
    79    45    46    1
    80    45    56   ar
    81    46    48   ar
    82    46    58   ar
    83    47    59    1
    84    48    49   ar
    85    48    69   ar
    86    49    53   ar
    87    49    57   ar
    88    50    62   ar
    89    50    87    1
    90    51    65   ar
    91    51    88    1
    92    52    66   ar
    93    52    89    1
    94    53    60   ar
    95    53    61   ar
    96    54    64   ar
    97    55    67   ar
    98    56    68   ar
    99    57    63   ar
   100    58    63   ar
   101    59    70   ar
   102    59    75   ar
   103    60    71   ar
   104    61    73   ar
   105    61    74   ar
   106    62    64   ar
   107    65    68   ar
   108    66    67   ar
   109    70    76   ar
   110    71    72   ar
   111    72    73   ar
   112    73    90    1
   113    75    77   ar
   114    75    91    1
   115    76    78   ar
   116    77    78   ar
