@<TRIPOS>MOLECULE
IMPHY015241
 53 52 0 0 0
SMALL
GASTEIGER

@<TRIPOS>ATOM
      1 C           6.3301    0.2500    0.0000 C.3     1  UNL1       -0.0439
      2 C           7.1962    0.7500    0.0000 C.3     1  UNL1       -0.0505
      3 C           8.0622    0.2500    0.0000 C.3     1  UNL1       -0.0526
      4 C           9.7942    0.2500    0.0000 C.3     1  UNL1       -0.0439
      5 C           8.9282    0.7500    0.0000 C.3     1  UNL1       -0.0505
      6 C           5.4641    0.7500    0.0000 C.3     1  UNL1       -0.0505
      7 C           4.5981    0.2500    0.0000 C.3     1  UNL1       -0.0526
      8 C          10.6603    0.7500    0.0000 C.3     1  UNL1       -0.0505
      9 C           3.7320    0.7500    0.0000 C.3     1  UNL1       -0.0507
     10 C           6.3301   -0.7500    0.0000 C.3     1  UNL1       -0.0624
     11 C          11.5263    0.2500    0.0000 C.3     1  UNL1       -0.0531
     12 C           9.7942   -0.7500    0.0000 C.3     1  UNL1       -0.0624
     13 C           2.8660    0.2500    0.0000 C.3     1  UNL1       -0.0467
     14 C          12.3923    0.7500    0.0000 C.3     1  UNL1       -0.0559
     15 C           2.0000    0.7500    0.0000 C.3     1  UNL1       -0.0627
     16 C           2.8660   -0.7500    0.0000 C.3     1  UNL1       -0.0627
     17 C          13.2583    0.2500    0.0000 C.3     1  UNL1       -0.0653
     18 H           6.8671   -0.0600    0.0000 H       1  UNL1        0.0298
     19 H           7.5947    1.2250    0.0000 H       1  UNL1        0.0268
     20 H           6.7976    1.2250    0.0000 H       1  UNL1        0.0268
     21 H           7.6636   -0.2249    0.0000 H       1  UNL1        0.0265
     22 H           8.4607   -0.2249    0.0000 H       1  UNL1        0.0265
     23 H           9.2573   -0.0600    0.0000 H       1  UNL1        0.0298
     24 H           9.3267    1.2250    0.0000 H       1  UNL1        0.0268
     25 H           8.5297    1.2250    0.0000 H       1  UNL1        0.0268
     26 H           5.8626    1.2250    0.0000 H       1  UNL1        0.0268
     27 H           5.0656    1.2250    0.0000 H       1  UNL1        0.0268
     28 H           4.1996   -0.2249    0.0000 H       1  UNL1        0.0265
     29 H           4.9966   -0.2249    0.0000 H       1  UNL1        0.0265
     30 H          11.0588    1.2250    0.0000 H       1  UNL1        0.0268
     31 H          10.2617    1.2250    0.0000 H       1  UNL1        0.0268
     32 H           4.1306    1.2250    0.0000 H       1  UNL1        0.0268
     33 H           3.3335    1.2250    0.0000 H       1  UNL1        0.0268
     34 H           5.7101   -0.7500    0.0000 H       1  UNL1        0.0232
     35 H           6.3301   -1.3700    0.0000 H       1  UNL1        0.0232
     36 H           6.9501   -0.7500    0.0000 H       1  UNL1        0.0232
     37 H          11.1278   -0.2249    0.0000 H       1  UNL1        0.0265
     38 H          11.9248   -0.2249    0.0000 H       1  UNL1        0.0265
     39 H           2.8660    0.8700    0.0000 H       1  UNL1        0.0295
     40 H           9.1742   -0.7500    0.0000 H       1  UNL1        0.0232
     41 H           9.7942   -1.3700    0.0000 H       1  UNL1        0.0232
     42 H          10.4142   -0.7500    0.0000 H       1  UNL1        0.0232
     43 H          12.7908    1.2250    0.0000 H       1  UNL1        0.0263
     44 H          11.9938    1.2250    0.0000 H       1  UNL1        0.0263
     45 H           2.3100    1.2869    0.0000 H       1  UNL1        0.0232
     46 H           1.4631    1.0600    0.0000 H       1  UNL1        0.0232
     47 H           1.6900    0.2131    0.0000 H       1  UNL1        0.0232
     48 H           2.2460   -0.7500    0.0000 H       1  UNL1        0.0232
     49 H           2.8660   -1.3700    0.0000 H       1  UNL1        0.0232
     50 H           3.4860   -0.7500    0.0000 H       1  UNL1        0.0232
     51 H          12.9483   -0.2869    0.0000 H       1  UNL1        0.0230
     52 H          13.7953   -0.0600    0.0000 H       1  UNL1        0.0230
     53 H          13.5683    0.7869    0.0000 H       1  UNL1        0.0230
@<TRIPOS>BOND
     1     1     2    1
     2     1     6    1
     3     1    10    1
     4     1    18    1
     5     2     3    1
     6     2    19    1
     7     2    20    1
     8     3     5    1
     9     3    21    1
    10     3    22    1
    11     4     5    1
    12     4     8    1
    13     4    12    1
    14     4    23    1
    15     5    24    1
    16     5    25    1
    17     6     7    1
    18     6    26    1
    19     6    27    1
    20     7     9    1
    21     7    28    1
    22     7    29    1
    23     8    11    1
    24     8    30    1
    25     8    31    1
    26     9    13    1
    27     9    32    1
    28     9    33    1
    29    10    34    1
    30    10    35    1
    31    10    36    1
    32    11    14    1
    33    11    37    1
    34    11    38    1
    35    12    40    1
    36    12    41    1
    37    12    42    1
    38    13    15    1
    39    13    16    1
    40    13    39    1
    41    14    17    1
    42    14    43    1
    43    14    44    1
    44    15    45    1
    45    15    46    1
    46    15    47    1
    47    16    48    1
    48    16    49    1
    49    16    50    1
    50    17    51    1
    51    17    52    1
    52    17    53    1
