@<TRIPOS>MOLECULE
IMPHY006734
 103 107 0 0 0
SMALL
GASTEIGER

@<TRIPOS>ATOM
      1 O           5.1643    2.2520    0.0000 O.3     1  UNL1       -0.3915
      2 O           6.8671   -3.9382    0.0000 O.3     1  UNL1       -0.3449
      3 O           5.1350   -3.9382    0.0000 O.3     1  UNL1       -0.3405
      4 O           6.8671   -5.9382    0.0000 O.3     1  UNL1       -0.3841
      5 O           5.1350   -6.9382    0.0000 O.3     1  UNL1       -0.3864
      6 O           3.4030   -5.9382    0.0000 O.3     1  UNL1       -0.3865
      7 O           2.5369   -4.4382    0.0000 O.3     1  UNL1       -0.3924
      8 C           7.7681    0.7621    0.0000 C.3     1  UNL1       -0.0229
      9 C           7.7643    1.7620    0.0000 C.3     1  UNL1       -0.0207
     10 C           6.9040    0.2587    0.0000 C.3     1  UNL1       -0.0271
     11 C           6.8920   -0.7828    0.0000 C.3     1  UNL1       -0.0252
     12 C           6.8963    2.2587    0.0000 C.3     1  UNL1       -0.0026
     13 C           7.7920   -1.3071    0.0000 C.3     1  UNL1       -0.0278
     14 C           8.6801    0.2587    0.0000 C.3     1  UNL1       -0.0466
     15 C           6.0361    0.7554    0.0000 C.3     1  UNL1       -0.0227
     16 C           6.0322    1.7554    0.0000 C.3     1  UNL1        0.0594
     17 C           8.6921   -0.7828    0.0000 C.3     1  UNL1       -0.0486
     18 C           8.4987    2.4320    0.0000 C.3     1  UNL1       -0.0462
     19 C           7.8046   -2.3920    0.0000 C.3     1  UNL1       -0.0052
     20 C           7.1018    3.2313    0.0000 C.3     1  UNL1       -0.0145
     21 C           5.9421   -1.3071    0.0000 C.3     1  UNL1       -0.0447
     22 C           8.0901    3.3382    0.0000 C.3     1  UNL1       -0.0456
     23 C           8.7522    0.9395    0.0000 C.3     1  UNL1       -0.0588
     24 C           8.7497    1.5922    0.0000 C.3     1  UNL1       -0.0587
     25 C           6.8671   -2.9382    0.0000 C.3     1  UNL1        0.0672
     26 C           6.0279   -0.2795    0.0000 C.3     1  UNL1       -0.0590
     27 C           5.9295   -2.3920    0.0000 C.3     1  UNL1       -0.0255
     28 C           8.8046   -2.3843    0.0000 C.3     1  UNL1       -0.0572
     29 C           8.3113   -3.2542    0.0000 C.3     1  UNL1       -0.0572
     30 C           6.4311    3.9730    0.0000 C.2     1  UNL1       -0.0728
     31 C           5.4534    3.7631    0.0000 C.3     1  UNL1       -0.0435
     32 C           6.7381    4.9248    0.0000 C.2     1  UNL1       -0.0810
     33 C           6.0010   -4.4382    0.0000 C.3     1  UNL1        0.1882
     34 C           7.7158    5.1348    0.0000 C.3     1  UNL1       -0.0161
     35 C           6.0010   -5.4382    0.0000 C.3     1  UNL1        0.1341
     36 C           5.1350   -5.9382    0.0000 C.3     1  UNL1        0.1141
     37 C           4.2690   -4.4382    0.0000 C.3     1  UNL1        0.1130
     38 C           4.2690   -5.4382    0.0000 C.3     1  UNL1        0.1119
     39 C           8.0228    6.0865    0.0000 C.2     1  UNL1       -0.0815
     40 C           3.4030   -3.9382    0.0000 C.3     1  UNL1        0.0730
     41 C           9.0005    6.2964    0.0000 C.2     1  UNL1       -0.0793
     42 C           9.3075    7.2482    0.0000 C.3     1  UNL1       -0.0440
     43 C           9.6712    5.5547    0.0000 C.3     1  UNL1       -0.0440
     44 H           7.6385   -0.1691    0.0000 H       1  UNL1        0.0312
     45 H           6.2074    2.7566    0.0000 H       1  UNL1        0.0337
     46 H           8.5314   -1.7264    0.0000 H       1  UNL1        0.0312
     47 H           9.2921    0.1597    0.0000 H       1  UNL1        0.0271
     48 H           8.8824    0.8448    0.0000 H       1  UNL1        0.0271
     49 H           5.4251    0.8607    0.0000 H       1  UNL1        0.0293
     50 H           5.8263    0.1720    0.0000 H       1  UNL1        0.0293
     51 H           5.4965    1.4433    0.0000 H       1  UNL1        0.0596
     52 H           8.9079   -1.3641    0.0000 H       1  UNL1        0.0268
     53 H           9.3017   -0.6697    0.0000 H       1  UNL1        0.0268
     54 H           8.8661    1.9325    0.0000 H       1  UNL1        0.0271
     55 H           9.0340    2.7448    0.0000 H       1  UNL1        0.0271
     56 H           7.3225    3.8107    0.0000 H       1  UNL1        0.0349
     57 H           5.7398   -0.7211    0.0000 H       1  UNL1        0.0271
     58 H           5.3300   -1.4061    0.0000 H       1  UNL1        0.0271
     59 H           8.6790    3.5322    0.0000 H       1  UNL1        0.0271
     60 H           7.9590    3.9442    0.0000 H       1  UNL1        0.0271
     61 H           8.8623    0.3293    0.0000 H       1  UNL1        0.0235
     62 H           9.3624    1.0495    0.0000 H       1  UNL1        0.0235
     63 H           8.6422    1.5497    0.0000 H       1  UNL1        0.0235
     64 H           8.6444    0.9812    0.0000 H       1  UNL1        0.0235
     65 H           9.3607    1.4869    0.0000 H       1  UNL1        0.0235
     66 H           8.8550    2.2032    0.0000 H       1  UNL1        0.0235
     67 H           7.4046   -3.2471    0.0000 H       1  UNL1        0.0602
     68 H           6.3400    0.2562    0.0000 H       1  UNL1        0.0235
     69 H           5.4922    0.0326    0.0000 H       1  UNL1        0.0235
     70 H           5.7158   -0.8152    0.0000 H       1  UNL1        0.0235
     71 H           5.3199   -2.2789    0.0000 H       1  UNL1        0.0290
     72 H           5.7137   -2.9733    0.0000 H       1  UNL1        0.0290
     73 H           7.7767   -3.5683    0.0000 H       1  UNL1        0.0236
     74 H           8.6254   -3.7887    0.0000 H       1  UNL1        0.0236
     75 H           8.8094   -3.0043    0.0000 H       1  UNL1        0.0236
     76 H           9.4246   -2.3796    0.0000 H       1  UNL1        0.0236
     77 H           8.7998   -1.7644    0.0000 H       1  UNL1        0.0236
     78 H           8.8458   -2.9401    0.0000 H       1  UNL1        0.0236
     79 H           4.6286    1.9400    0.0000 H       1  UNL1        0.2098
     80 H           5.3232    4.3692    0.0000 H       1  UNL1        0.0274
     81 H           4.8472    3.6329    0.0000 H       1  UNL1        0.0274
     82 H           5.5836    3.1569    0.0000 H       1  UNL1        0.0274
     83 H           6.3222    5.3846    0.0000 H       1  UNL1        0.0575
     84 H           6.0010   -3.8182    0.0000 H       1  UNL1        0.0937
     85 H           7.7387    4.5152    0.0000 H       1  UNL1        0.0350
     86 H           8.3299    5.0498    0.0000 H       1  UNL1        0.0350
     87 H           6.0010   -6.0582    0.0000 H       1  UNL1        0.0671
     88 H           4.5981   -6.2482    0.0000 H       1  UNL1        0.0648
     89 H           4.2690   -3.8182    0.0000 H       1  UNL1        0.0647
     90 H           3.7320   -5.1282    0.0000 H       1  UNL1        0.0647
     91 H           7.6069    6.5463    0.0000 H       1  UNL1        0.0575
     92 H           6.8671   -6.5582    0.0000 H       1  UNL1        0.2101
     93 H           3.8015   -3.4632    0.0000 H       1  UNL1        0.0584
     94 H           3.0044   -3.4632    0.0000 H       1  UNL1        0.0584
     95 H           4.5981   -7.2482    0.0000 H       1  UNL1        0.2100
     96 H           3.4030   -6.5582    0.0000 H       1  UNL1        0.2100
     97 H           9.2113    5.1389    0.0000 H       1  UNL1        0.0274
     98 H          10.0870    5.0949    0.0000 H       1  UNL1        0.0274
     99 H          10.1310    5.9706    0.0000 H       1  UNL1        0.0274
    100 H           9.8975    7.0578    0.0000 H       1  UNL1        0.0274
    101 H           9.4978    7.8382    0.0000 H       1  UNL1        0.0274
    102 H           8.7174    7.4385    0.0000 H       1  UNL1        0.0274
    103 H           2.0000   -4.1282    0.0000 H       1  UNL1        0.2095
@<TRIPOS>BOND
     1    16     1    1
     2     1    79    1
     3    25     2    1
     4    33     2    1
     5     3    33    1
     6     3    37    1
     7    35     4    1
     8     4    92    1
     9    36     5    1
    10     5    95    1
    11    38     6    1
    12     6    96    1
    13     7    40    1
    14     7   103    1
    15     8     9    1
    16     8    10    1
    17     8    14    1
    18     8    23    1
    19     9    12    1
    20     9    18    1
    21     9    24    1
    22    10    11    1
    23    10    15    1
    24    10    44    1
    25    11    13    1
    26    11    21    1
    27    11    26    1
    28    12    16    1
    29    12    20    1
    30    12    45    1
    31    13    17    1
    32    13    19    1
    33    13    46    1
    34    14    17    1
    35    14    47    1
    36    14    48    1
    37    15    16    1
    38    15    49    1
    39    15    50    1
    40    16    51    1
    41    17    52    1
    42    17    53    1
    43    18    22    1
    44    18    54    1
    45    18    55    1
    46    19    25    1
    47    19    28    1
    48    19    29    1
    49    20    22    1
    50    20    30    1
    51    20    56    1
    52    21    27    1
    53    21    57    1
    54    21    58    1
    55    22    59    1
    56    22    60    1
    57    23    61    1
    58    23    62    1
    59    23    63    1
    60    24    64    1
    61    24    65    1
    62    24    66    1
    63    25    27    1
    64    25    67    1
    65    26    68    1
    66    26    69    1
    67    26    70    1
    68    27    71    1
    69    27    72    1
    70    28    75    1
    71    28    76    1
    72    28    77    1
    73    29    73    1
    74    29    74    1
    75    29    78    1
    76    30    31    1
    77    30    32    2
    78    31    80    1
    79    31    81    1
    80    31    82    1
    81    32    34    1
    82    32    83    1
    83    33    35    1
    84    33    84    1
    85    34    39    1
    86    34    85    1
    87    34    86    1
    88    35    36    1
    89    35    87    1
    90    36    38    1
    91    36    88    1
    92    37    38    1
    93    37    40    1
    94    37    89    1
    95    38    90    1
    96    39    41    2
    97    39    91    1
    98    40    93    1
    99    40    94    1
   100    41    42    1
   101    41    43    1
   102    42   100    1
   103    42   101    1
   104    42   102    1
   105    43    97    1
   106    43    98    1
   107    43    99    1
