@<TRIPOS>MOLECULE
IMPHY012195
 44 43 0 0 0
SMALL
GASTEIGER

@<TRIPOS>ATOM
      1 C           8.0622   -0.2500    0.0000 C.3     1  UNL1       -0.0439
      2 C           7.1962    0.2500    0.0000 C.3     1  UNL1       -0.0505
      3 C           8.9282    0.2500    0.0000 C.3     1  UNL1       -0.0502
      4 C           6.3301   -0.2500    0.0000 C.3     1  UNL1       -0.0528
      5 C           9.7942   -0.2500    0.0000 C.3     1  UNL1       -0.0505
      6 C          10.6603    0.2500    0.0000 C.3     1  UNL1       -0.0467
      7 C           5.4641    0.2500    0.0000 C.3     1  UNL1       -0.0530
      8 C           8.0622   -1.2500    0.0000 C.3     1  UNL1       -0.0624
      9 C           4.5981   -0.2500    0.0000 C.3     1  UNL1       -0.0531
     10 C           3.7320    0.2500    0.0000 C.3     1  UNL1       -0.0533
     11 C          11.5263   -0.2500    0.0000 C.3     1  UNL1       -0.0627
     12 C          10.6603    1.2500    0.0000 C.3     1  UNL1       -0.0627
     13 C           2.8660   -0.2500    0.0000 C.3     1  UNL1       -0.0559
     14 C           2.0000    0.2500    0.0000 C.3     1  UNL1       -0.0653
     15 H           7.5252   -0.5600    0.0000 H       1  UNL1        0.0298
     16 H           7.5947    0.7249    0.0000 H       1  UNL1        0.0268
     17 H           6.7976    0.7249    0.0000 H       1  UNL1        0.0268
     18 H           9.3267    0.7249    0.0000 H       1  UNL1        0.0268
     19 H           8.5297    0.7249    0.0000 H       1  UNL1        0.0268
     20 H           5.9316   -0.7249    0.0000 H       1  UNL1        0.0265
     21 H           6.7287   -0.7249    0.0000 H       1  UNL1        0.0265
     22 H           9.3957   -0.7249    0.0000 H       1  UNL1        0.0268
     23 H          10.1928   -0.7249    0.0000 H       1  UNL1        0.0268
     24 H          11.1972    0.5600    0.0000 H       1  UNL1        0.0295
     25 H           5.8626    0.7249    0.0000 H       1  UNL1        0.0265
     26 H           5.0656    0.7249    0.0000 H       1  UNL1        0.0265
     27 H           7.4422   -1.2500    0.0000 H       1  UNL1        0.0232
     28 H           8.0622   -1.8700    0.0000 H       1  UNL1        0.0232
     29 H           8.6822   -1.2500    0.0000 H       1  UNL1        0.0232
     30 H           4.1996   -0.7249    0.0000 H       1  UNL1        0.0265
     31 H           4.9966   -0.7249    0.0000 H       1  UNL1        0.0265
     32 H           4.1306    0.7249    0.0000 H       1  UNL1        0.0265
     33 H           3.3335    0.7249    0.0000 H       1  UNL1        0.0265
     34 H          11.2163   -0.7869    0.0000 H       1  UNL1        0.0232
     35 H          12.0632   -0.5600    0.0000 H       1  UNL1        0.0232
     36 H          11.8363    0.2869    0.0000 H       1  UNL1        0.0232
     37 H          11.2803    1.2500    0.0000 H       1  UNL1        0.0232
     38 H          10.6603    1.8700    0.0000 H       1  UNL1        0.0232
     39 H          10.0403    1.2500    0.0000 H       1  UNL1        0.0232
     40 H           2.4675   -0.7249    0.0000 H       1  UNL1        0.0263
     41 H           3.2646   -0.7249    0.0000 H       1  UNL1        0.0263
     42 H           2.3100    0.7869    0.0000 H       1  UNL1        0.0230
     43 H           1.4631    0.5600    0.0000 H       1  UNL1        0.0230
     44 H           1.6900   -0.2869    0.0000 H       1  UNL1        0.0230
@<TRIPOS>BOND
     1     1     2    1
     2     1     3    1
     3     1     8    1
     4     1    15    1
     5     2     4    1
     6     2    16    1
     7     2    17    1
     8     3     5    1
     9     3    18    1
    10     3    19    1
    11     4     7    1
    12     4    20    1
    13     4    21    1
    14     5     6    1
    15     5    22    1
    16     5    23    1
    17     6    11    1
    18     6    12    1
    19     6    24    1
    20     7     9    1
    21     7    25    1
    22     7    26    1
    23     8    27    1
    24     8    28    1
    25     8    29    1
    26     9    10    1
    27     9    30    1
    28     9    31    1
    29    10    13    1
    30    10    32    1
    31    10    33    1
    32    11    34    1
    33    11    35    1
    34    11    36    1
    35    12    37    1
    36    12    38    1
    37    12    39    1
    38    13    14    1
    39    13    40    1
    40    13    41    1
    41    14    42    1
    42    14    43    1
    43    14    44    1
