@<TRIPOS>MOLECULE
IMPHY004649
 25 24 0 0 0
SMALL
GASTEIGER

@<TRIPOS>ATOM
      1 O           4.2690   -2.9050    0.0000 O.3     1  UNL1       -0.3769
      2 O           2.5369   -1.9050    0.0000 O.3     1  UNL1       -0.3915
      3 C           4.2690   -1.9050    0.0000 C.3     1  UNL1        0.1393
      4 C           3.4030   -1.4050    0.0000 C.3     1  UNL1        0.0813
      5 C           5.1350   -1.4050    0.0000 C.1     1  UNL1       -0.0548
      6 C          13.7953    2.5950    0.0000 C.3     1  UNL1       -0.0459
      7 C          12.9292    2.0950    0.0000 C.2     1  UNL1       -0.0789
      8 C           6.0010   -0.9050    0.0000 C.1     1  UNL1       -0.0112
      9 C          12.0632    2.5950    0.0000 C.2     1  UNL1       -0.0148
     10 C           6.8671   -0.4050    0.0000 C.1     1  UNL1       -0.0009
     11 C          11.1972    2.0950    0.0000 C.1     1  UNL1       -0.0606
     12 C           7.7331    0.0950    0.0000 C.1     1  UNL1       -0.0000
     13 C          10.3312    1.5950    0.0000 C.1     1  UNL1       -0.0092
     14 C           8.5991    0.5950    0.0000 C.1     1  UNL1       -0.0000
     15 C           9.4651    1.0950    0.0000 C.1     1  UNL1       -0.0006
     16 H           4.8059   -2.2150    0.0000 H       1  UNL1        0.0755
     17 H           3.8015   -0.9301    0.0000 H       1  UNL1        0.0593
     18 H           3.0044   -0.9301    0.0000 H       1  UNL1        0.0593
     19 H           4.8059   -3.2150    0.0000 H       1  UNL1        0.2112
     20 H           2.0000   -1.5950    0.0000 H       1  UNL1        0.2095
     21 H          14.1053    2.0581    0.0000 H       1  UNL1        0.0272
     22 H          14.3322    2.9050    0.0000 H       1  UNL1        0.0272
     23 H          13.4853    3.1319    0.0000 H       1  UNL1        0.0272
     24 H          12.9292    1.4750    0.0000 H       1  UNL1        0.0575
     25 H          12.0632    3.2150    0.0000 H       1  UNL1        0.0709
@<TRIPOS>BOND
     1     3     1    1
     2     1    19    1
     3     2     4    1
     4     2    20    1
     5     3     4    1
     6     3     5    1
     7     3    16    1
     8     4    17    1
     9     4    18    1
    10     5     8    3
    11     6     7    1
    12     6    21    1
    13     6    22    1
    14     6    23    1
    15     7     9    2
    16     7    24    1
    17     8    10    1
    18     9    11    1
    19     9    25    1
    20    10    12    3
    21    11    13    3
    22    12    14    1
    23    13    15    1
    24    14    15    3
