@<TRIPOS>MOLECULE
IMPHY002650
 74 78 0 0 0
SMALL
GASTEIGER

@<TRIPOS>ATOM
      1 O           5.1350   -2.0000    0.0000 O.3     1  UNL1       -0.3313
      2 O           6.0010    2.5000    0.0000 O.3     1  UNL1       -0.3313
      3 O           6.8671   -2.0000    0.0000 O.3     1  UNL1       -0.4533
      4 O           5.1350    1.0000    0.0000 O.3     1  UNL1       -0.4533
      5 O           5.1350   -5.0000    0.0000 O.3     1  UNL1       -0.3864
      6 O           3.4030   -4.0000    0.0000 O.3     1  UNL1       -0.3865
      7 O           3.4030    4.0000    0.0000 O.3     1  UNL1       -0.3864
      8 O           5.1350    5.0000    0.0000 O.3     1  UNL1       -0.3865
      9 O           6.8671   -4.0000    0.0000 O.3     1  UNL1       -0.3829
     10 O           3.4030    2.0000    0.0000 O.3     1  UNL1       -0.3829
     11 O           2.5369   -2.5000    0.0000 O.3     1  UNL1       -0.3924
     12 O           7.7331    3.5000    0.0000 O.3     1  UNL1       -0.3924
     13 O           8.6270   -1.0347    0.0000 O.2     1  UNL1       -0.4507
     14 O           5.1350   -1.0000    0.0000 O.3     1  UNL1       -0.5007
     15 O           6.8671    2.0000    0.0000 O.3     1  UNL1       -0.5027
     16 O           8.6155    2.0346    0.0000 O.2     1  UNL1       -0.2869
     17 O          12.9895   -2.5342    0.0000 O.3     1  UNL1       -0.5068
     18 C           5.1350   -4.0000    0.0000 C.3     1  UNL1        0.1152
     19 C           4.2690   -3.5000    0.0000 C.3     1  UNL1        0.1120
     20 C           4.2690    3.5000    0.0000 C.3     1  UNL1        0.1152
     21 C           5.1350    4.0000    0.0000 C.3     1  UNL1        0.1120
     22 C           6.0010   -3.5000    0.0000 C.3     1  UNL1        0.1454
     23 C           4.2690    2.5000    0.0000 C.3     1  UNL1        0.1454
     24 C           4.2690   -2.5000    0.0000 C.3     1  UNL1        0.1140
     25 C           6.0010    3.5000    0.0000 C.3     1  UNL1        0.1140
     26 C           6.0010   -2.5000    0.0000 C.3     1  UNL1        0.2311
     27 C           5.1350    2.0000    0.0000 C.3     1  UNL1        0.2311
     28 C           3.4030   -2.0000    0.0000 C.3     1  UNL1        0.0731
     29 C           6.8671    4.0000    0.0000 C.3     1  UNL1        0.0731
     30 C           6.8671   -1.0000    0.0000 C.ar    1  UNL1        0.2118
     31 C           6.0010    0.5000    0.0000 C.ar    1  UNL1        0.2109
     32 C           6.0010   -0.5000    0.0000 C.ar    1  UNL1        0.2088
     33 C           7.7331   -0.5000    0.0000 C.ar    1  UNL1        0.1882
     34 C           6.8671    1.0000    0.0000 C.ar    1  UNL1        0.1771
     35 C           7.7331    0.5000    0.0000 C.ar    1  UNL1        0.1128
     36 C           8.6270    1.0347    0.0000 C.ar    1  UNL1        0.1969
     37 C           9.5331   -0.5208    0.0000 C.ar    1  UNL1        0.1394
     38 C           9.5331    0.5208    0.0000 C.ar    1  UNL1        0.0288
     39 C          10.3972   -1.0241    0.0000 C.ar    1  UNL1        0.0176
     40 C          10.3933   -2.0241    0.0000 C.ar    1  UNL1       -0.0476
     41 C          11.2651   -0.5275    0.0000 C.ar    1  UNL1       -0.0476
     42 C          11.2574   -2.5275    0.0000 C.ar    1  UNL1       -0.0195
     43 C          12.1292   -1.0308    0.0000 C.ar    1  UNL1       -0.0195
     44 C          12.1254   -2.0308    0.0000 C.ar    1  UNL1        0.1169
     45 H           5.6720   -4.3100    0.0000 H       1  UNL1        0.0648
     46 H           4.2690   -4.1200    0.0000 H       1  UNL1        0.0647
     47 H           4.2690    4.1200    0.0000 H       1  UNL1        0.0648
     48 H           5.6720    4.3100    0.0000 H       1  UNL1        0.0647
     49 H           6.5380   -3.1900    0.0000 H       1  UNL1        0.0683
     50 H           4.2690    1.8800    0.0000 H       1  UNL1        0.0683
     51 H           4.2690   -1.8800    0.0000 H       1  UNL1        0.0647
     52 H           6.5380    3.1900    0.0000 H       1  UNL1        0.0647
     53 H           6.0010   -1.8800    0.0000 H       1  UNL1        0.1084
     54 H           5.6720    1.6900    0.0000 H       1  UNL1        0.1084
     55 H           3.8015   -1.5250    0.0000 H       1  UNL1        0.0584
     56 H           3.0044   -1.5250    0.0000 H       1  UNL1        0.0584
     57 H           7.2656    4.4750    0.0000 H       1  UNL1        0.0584
     58 H           6.4685    4.4750    0.0000 H       1  UNL1        0.0584
     59 H           4.5981   -5.3100    0.0000 H       1  UNL1        0.2100
     60 H           3.4030   -4.6200    0.0000 H       1  UNL1        0.2100
     61 H           3.4030    4.6200    0.0000 H       1  UNL1        0.2100
     62 H           5.6720    5.3100    0.0000 H       1  UNL1        0.2100
     63 H           6.8671   -4.6200    0.0000 H       1  UNL1        0.2102
     64 H           2.8660    2.3100    0.0000 H       1  UNL1        0.2102
     65 H           2.0000   -2.1900    0.0000 H       1  UNL1        0.2095
     66 H           8.2700    3.8100    0.0000 H       1  UNL1        0.2095
     67 H           4.5981   -0.6900    0.0000 H       1  UNL1        0.2924
     68 H          10.0688    0.8329    0.0000 H       1  UNL1        0.0693
     69 H           7.4040    2.3100    0.0000 H       1  UNL1        0.2923
     70 H           9.8552   -2.3321    0.0000 H       1  UNL1        0.0626
     71 H          11.2675    0.0925    0.0000 H       1  UNL1        0.0626
     72 H          11.2550   -3.1475    0.0000 H       1  UNL1        0.0654
     73 H          12.6674   -0.7229    0.0000 H       1  UNL1        0.0654
     74 H          13.5276   -2.2262    0.0000 H       1  UNL1        0.2921
@<TRIPOS>BOND
     1     1    24    1
     2     1    26    1
     3     2    25    1
     4     2    27    1
     5     3    26    1
     6     3    30    1
     7     4    27    1
     8     4    31    1
     9     5    18    1
    10     5    59    1
    11     6    19    1
    12     6    60    1
    13     7    20    1
    14     7    61    1
    15     8    21    1
    16     8    62    1
    17     9    22    1
    18     9    63    1
    19    10    23    1
    20    10    64    1
    21    11    28    1
    22    11    65    1
    23    12    29    1
    24    12    66    1
    25    13    33   ar
    26    13    37   ar
    27    14    32    1
    28    14    67    1
    29    15    34    1
    30    15    69    1
    31    16    36    2
    32    17    44    1
    33    17    74    1
    34    18    19    1
    35    18    22    1
    36    18    45    1
    37    19    24    1
    38    19    46    1
    39    20    21    1
    40    20    23    1
    41    20    47    1
    42    21    25    1
    43    21    48    1
    44    22    26    1
    45    22    49    1
    46    23    27    1
    47    23    50    1
    48    24    28    1
    49    24    51    1
    50    25    29    1
    51    25    52    1
    52    26    53    1
    53    27    54    1
    54    28    55    1
    55    28    56    1
    56    29    57    1
    57    29    58    1
    58    30    32   ar
    59    30    33   ar
    60    31    32   ar
    61    31    34   ar
    62    33    35   ar
    63    34    35   ar
    64    35    36   ar
    65    36    38   ar
    66    37    38   ar
    67    37    39    1
    68    38    68    1
    69    39    40   ar
    70    39    41   ar
    71    40    42   ar
    72    40    70    1
    73    41    43   ar
    74    41    71    1
    75    42    44   ar
    76    42    72    1
    77    43    44   ar
    78    43    73    1
