@<TRIPOS>MOLECULE
IMPHY003927
 95 102 0 0 0
SMALL
GASTEIGER

@<TRIPOS>ATOM
      1 O           5.9860    0.5419    0.0000 O.3     1  UNL1       -0.3281
      2 O           8.4266   -1.4525    0.0000 O.3     1  UNL1       -0.4500
      3 O           6.8680   -1.9996    0.0000 O.3     1  UNL1       -0.4512
      4 O           8.4494    1.4986    0.0000 O.3     1  UNL1       -0.4476
      5 O           6.8802    2.0697    0.0000 O.3     1  UNL1       -0.4275
      6 O           4.8772   -1.9655    0.0000 O.3     1  UNL1       -0.4584
      7 O           9.4939   -2.8403    0.0000 O.2     1  UNL1       -0.2449
      8 O           5.8477   -3.6798    0.0000 O.2     1  UNL1       -0.2449
      9 O           9.5379    2.8697    0.0000 O.2     1  UNL1       -0.2449
     10 O           5.1481    2.0630    0.0000 O.2     1  UNL1       -0.2449
     11 O           5.8772   -1.9655    0.0000 O.2     1  UNL1       -0.2449
     12 O          13.4922   -0.4639    0.0000 O.3     1  UNL1       -0.5028
     13 O          13.4991    0.4320    0.0000 O.3     1  UNL1       -0.5028
     14 O           6.3741   -6.3338    0.0000 O.3     1  UNL1       -0.5028
     15 O          12.6718   -3.6954    0.0000 O.3     1  UNL1       -0.5032
     16 O           5.3803   -6.3338    0.0000 O.3     1  UNL1       -0.5028
     17 O          13.9982   -1.9236    0.0000 O.3     1  UNL1       -0.5009
     18 O          12.7286    3.6757    0.0000 O.3     1  UNL1       -0.5032
     19 O          14.0275    1.8837    0.0000 O.3     1  UNL1       -0.5009
     20 O           9.4464   -4.5757    0.0000 O.3     1  UNL1       -0.5032
     21 O           8.4223   -6.3496    0.0000 O.3     1  UNL1       -0.5009
     22 O           3.3321   -6.3496    0.0000 O.3     1  UNL1       -0.5009
     23 O           2.3079   -4.5757    0.0000 O.3     1  UNL1       -0.5032
     24 O           4.2686    5.5597    0.0000 O.3     1  UNL1       -0.5032
     25 O           7.7327    5.5730    0.0000 O.3     1  UNL1       -0.5032
     26 O           5.9968    6.5663    0.0000 O.3     1  UNL1       -0.5009
     27 C           7.7780   -0.4927    0.0000 C.3     1  UNL1        0.1851
     28 C           6.8680   -0.9996    0.0000 C.3     1  UNL1        0.1730
     29 C           7.7861    0.5489    0.0000 C.3     1  UNL1        0.2053
     30 C           6.0020   -0.4996    0.0000 C.3     1  UNL1        0.1371
     31 C           6.8840    1.0697    0.0000 C.3     1  UNL1        0.2465
     32 C           5.1360   -0.9996    0.0000 C.3     1  UNL1        0.1226
     33 C           9.5180   -1.8406    0.0000 C.2     1  UNL1        0.3405
     34 C           6.3772   -2.8315    0.0000 C.2     1  UNL1        0.3405
     35 C           9.5466    1.8698    0.0000 C.2     1  UNL1        0.3406
     36 C          10.6270   -1.5057    0.0000 C.ar    1  UNL1        0.0740
     37 C          10.6503    1.5178    0.0000 C.ar    1  UNL1        0.0740
     38 C           6.8772   -3.6976    0.0000 C.ar    1  UNL1        0.0740
     39 C           6.0122    2.5663    0.0000 C.2     1  UNL1        0.3417
     40 C          11.3212   -0.5784    0.0000 C.ar    1  UNL1        0.0458
     41 C          11.3301    0.5799    0.0000 C.ar    1  UNL1        0.0458
     42 C           5.3772   -2.8315    0.0000 C.2     1  UNL1        0.3401
     43 C           6.3772   -4.5636    0.0000 C.ar    1  UNL1        0.0458
     44 C           4.8772   -3.6976    0.0000 C.ar    1  UNL1        0.0740
     45 C           5.3772   -4.5636    0.0000 C.ar    1  UNL1        0.0458
     46 C          11.0848   -2.6221    0.0000 C.ar    1  UNL1       -0.0017
     47 C          11.1252    2.6270    0.0000 C.ar    1  UNL1       -0.0017
     48 C           6.0084    3.5663    0.0000 C.ar    1  UNL1        0.0662
     49 C          12.5213   -0.7032    0.0000 C.ar    1  UNL1        0.1708
     50 C           7.9187   -3.6815    0.0000 C.ar    1  UNL1       -0.0017
     51 C          12.5320    0.6862    0.0000 C.ar    1  UNL1        0.1708
     52 C           6.8840   -5.4736    0.0000 C.ar    1  UNL1        0.1708
     53 C          12.2817   -2.7746    0.0000 C.ar    1  UNL1        0.1628
     54 C           4.8703   -5.4736    0.0000 C.ar    1  UNL1        0.1708
     55 C          13.0048   -1.8087    0.0000 C.ar    1  UNL1        0.2012
     56 C          12.3243    2.7610    0.0000 C.ar    1  UNL1        0.1628
     57 C           3.8357   -3.6815    0.0000 C.ar    1  UNL1       -0.0017
     58 C          13.0325    1.7841    0.0000 C.ar    1  UNL1        0.2012
     59 C           8.4464   -4.5795    0.0000 C.ar    1  UNL1        0.1628
     60 C           7.9256   -5.4816    0.0000 C.ar    1  UNL1        0.2012
     61 C           6.8724    4.0697    0.0000 C.ar    1  UNL1       -0.0023
     62 C           5.1404    4.0630    0.0000 C.ar    1  UNL1       -0.0023
     63 C           3.8287   -5.4816    0.0000 C.ar    1  UNL1        0.2012
     64 C           3.3079   -4.5795    0.0000 C.ar    1  UNL1        0.1628
     65 C           5.1366    5.0630    0.0000 C.ar    1  UNL1        0.1628
     66 C           6.8686    5.0697    0.0000 C.ar    1  UNL1        0.1628
     67 C           6.0006    5.5663    0.0000 C.ar    1  UNL1        0.2006
     68 H           7.5808   -1.3195    0.0000 H       1  UNL1        0.0813
     69 H           7.6009   -1.4302    0.0000 H       1  UNL1        0.0801
     70 H           7.6016    1.3786    0.0000 H       1  UNL1        0.0837
     71 H           5.2626   -0.0803    0.0000 H       1  UNL1        0.0670
     72 H           6.3453    1.3766    0.0000 H       1  UNL1        0.1098
     73 H           4.9755   -0.4007    0.0000 H       1  UNL1        0.0725
     74 H           4.5160   -0.9996    0.0000 H       1  UNL1        0.0725
     75 H          10.7075   -3.1141    0.0000 H       1  UNL1        0.0664
     76 H          10.7556    3.1248    0.0000 H       1  UNL1        0.0664
     77 H           8.2225   -3.1410    0.0000 H       1  UNL1        0.0664
     78 H           3.5319   -3.1410    0.0000 H       1  UNL1        0.0664
     79 H           7.4106    3.7617    0.0000 H       1  UNL1        0.0663
     80 H           4.6047    3.7509    0.0000 H       1  UNL1        0.0663
     81 H          13.9217   -0.9111    0.0000 H       1  UNL1        0.2923
     82 H          13.9355    0.8725    0.0000 H       1  UNL1        0.2923
     83 H           6.6778   -6.8742    0.0000 H       1  UNL1        0.2923
     84 H          12.2983   -4.1903    0.0000 H       1  UNL1        0.2923
     85 H           5.0766   -6.8742    0.0000 H       1  UNL1        0.2923
     86 H          14.2444   -2.4926    0.0000 H       1  UNL1        0.2924
     87 H          12.3628    4.1763    0.0000 H       1  UNL1        0.2923
     88 H          14.2825    2.4488    0.0000 H       1  UNL1        0.2924
     89 H           9.7585   -5.1114    0.0000 H       1  UNL1        0.2923
     90 H           9.0423   -6.3519    0.0000 H       1  UNL1        0.2924
     91 H           2.7121   -6.3519    0.0000 H       1  UNL1        0.2924
     92 H           2.0000   -4.0375    0.0000 H       1  UNL1        0.2923
     93 H           3.7329    5.2476    0.0000 H       1  UNL1        0.2923
     94 H           7.7303    6.1930    0.0000 H       1  UNL1        0.2923
     95 H           5.4587    6.8742    0.0000 H       1  UNL1        0.2924
@<TRIPOS>BOND
     1     1    30    1
     2     1    31    1
     3     2    27    1
     4     2    33    1
     5     3    28    1
     6     3    34    1
     7     4    29    1
     8     4    35    1
     9    31     5    1
    10     5    39    1
    11     6    32    1
    12     6    42    1
    13     7    33    2
    14     8    34    2
    15     9    35    2
    16    10    39    2
    17    11    42    2
    18    12    49    1
    19    12    81    1
    20    13    51    1
    21    13    82    1
    22    14    52    1
    23    14    83    1
    24    15    53    1
    25    15    84    1
    26    16    54    1
    27    16    85    1
    28    17    55    1
    29    17    86    1
    30    18    56    1
    31    18    87    1
    32    19    58    1
    33    19    88    1
    34    20    59    1
    35    20    89    1
    36    21    60    1
    37    21    90    1
    38    22    63    1
    39    22    91    1
    40    23    64    1
    41    23    92    1
    42    24    65    1
    43    24    93    1
    44    25    66    1
    45    25    94    1
    46    26    67    1
    47    26    95    1
    48    27    28    1
    49    27    29    1
    50    27    68    1
    51    28    30    1
    52    28    69    1
    53    29    31    1
    54    29    70    1
    55    30    32    1
    56    30    71    1
    57    31    72    1
    58    32    73    1
    59    32    74    1
    60    33    36    1
    61    34    38    1
    62    35    37    1
    63    36    40   ar
    64    36    46   ar
    65    37    41   ar
    66    37    47   ar
    67    38    43   ar
    68    38    50   ar
    69    39    48    1
    70    40    41    1
    71    40    49   ar
    72    41    51   ar
    73    42    44    1
    74    43    45    1
    75    43    52   ar
    76    44    45   ar
    77    44    57   ar
    78    45    54   ar
    79    46    53   ar
    80    46    75    1
    81    47    56   ar
    82    47    76    1
    83    48    61   ar
    84    48    62   ar
    85    49    55   ar
    86    50    59   ar
    87    50    77    1
    88    51    58   ar
    89    52    60   ar
    90    53    55   ar
    91    54    63   ar
    92    56    58   ar
    93    57    64   ar
    94    57    78    1
    95    59    60   ar
    96    61    66   ar
    97    61    79    1
    98    62    65   ar
    99    62    80    1
   100    63    64   ar
   101    65    67   ar
   102    66    67   ar
