@<TRIPOS>MOLECULE
IMPHY009027
 47 48 0 0 0
SMALL
GASTEIGER

@<TRIPOS>ATOM
      1 O           4.2690   -0.3450    0.0000 O.3     1  UNL1       -0.3312
      2 O           6.0010   -0.3450    0.0000 O.3     1  UNL1       -0.4290
      3 O           4.2690   -3.3450    0.0000 O.3     1  UNL1       -0.3864
      4 O           2.5369   -2.3450    0.0000 O.3     1  UNL1       -0.3865
      5 O           6.0010   -2.3450    0.0000 O.3     1  UNL1       -0.3829
      6 O           2.5369    0.6550    0.0000 O.3     1  UNL1       -0.3924
      7 O           5.1350    1.1550    0.0000 O.2     1  UNL1       -0.2452
      8 C           4.2690   -2.3450    0.0000 C.3     1  UNL1        0.1152
      9 C           3.4030   -1.8450    0.0000 C.3     1  UNL1        0.1120
     10 C           5.1350   -1.8450    0.0000 C.3     1  UNL1        0.1455
     11 C           3.4030   -0.8450    0.0000 C.3     1  UNL1        0.1140
     12 C           5.1350   -0.8450    0.0000 C.3     1  UNL1        0.2341
     13 C           8.5991    2.1550    0.0000 C.3     1  UNL1       -0.0167
     14 C           7.7331    2.6550    0.0000 C.3     1  UNL1       -0.0420
     15 C           6.8671    2.1550    0.0000 C.3     1  UNL1       -0.0207
     16 C           8.5991    1.1550    0.0000 C.3     1  UNL1       -0.0275
     17 C           2.5369   -0.3450    0.0000 C.3     1  UNL1        0.0731
     18 C           6.8671    1.1550    0.0000 C.2     1  UNL1        0.0328
     19 C           7.7331    0.6550    0.0000 C.2     1  UNL1       -0.0735
     20 C           6.0010    0.6550    0.0000 C.2     1  UNL1        0.3371
     21 C           9.4651    2.6550    0.0000 C.2     1  UNL1       -0.0763
     22 C           9.4651    3.6550    0.0000 C.3     1  UNL1       -0.0438
     23 C          10.3312    2.1550    0.0000 C.2     1  UNL1       -0.0994
     24 H           4.8059   -2.6550    0.0000 H       1  UNL1        0.0648
     25 H           3.4030   -2.4650    0.0000 H       1  UNL1        0.0647
     26 H           5.6720   -1.5350    0.0000 H       1  UNL1        0.0683
     27 H           3.4030   -0.2250    0.0000 H       1  UNL1        0.0647
     28 H           5.1350   -0.2250    0.0000 H       1  UNL1        0.1085
     29 H           8.5991    2.7750    0.0000 H       1  UNL1        0.0348
     30 H           8.1316    3.1300    0.0000 H       1  UNL1        0.0274
     31 H           7.3346    3.1300    0.0000 H       1  UNL1        0.0274
     32 H           6.6550    2.7376    0.0000 H       1  UNL1        0.0315
     33 H           6.2565    2.0473    0.0000 H       1  UNL1        0.0315
     34 H           8.8112    0.5724    0.0000 H       1  UNL1        0.0313
     35 H           9.2097    1.2627    0.0000 H       1  UNL1        0.0313
     36 H           1.9264   -0.2373    0.0000 H       1  UNL1        0.0584
     37 H           2.3249   -0.9276    0.0000 H       1  UNL1        0.0584
     38 H           7.7331    0.0350    0.0000 H       1  UNL1        0.0577
     39 H           3.7320   -3.6550    0.0000 H       1  UNL1        0.2100
     40 H           2.0000   -2.0350    0.0000 H       1  UNL1        0.2100
     41 H           6.5380   -2.0350    0.0000 H       1  UNL1        0.2102
     42 H          10.0851    3.6550    0.0000 H       1  UNL1        0.0274
     43 H           9.4651    4.2750    0.0000 H       1  UNL1        0.0274
     44 H           8.8451    3.6550    0.0000 H       1  UNL1        0.0274
     45 H           2.0000    0.9650    0.0000 H       1  UNL1        0.2095
     46 H          10.3312    1.5350    0.0000 H       1  UNL1        0.0534
     47 H          10.8681    2.4650    0.0000 H       1  UNL1        0.0534
@<TRIPOS>BOND
     1     1    11    1
     2     1    12    1
     3    12     2    1
     4     2    20    1
     5     8     3    1
     6     3    39    1
     7     9     4    1
     8     4    40    1
     9    10     5    1
    10     5    41    1
    11     6    17    1
    12     6    45    1
    13     7    20    2
    14     8     9    1
    15     8    10    1
    16     8    24    1
    17     9    11    1
    18     9    25    1
    19    10    12    1
    20    10    26    1
    21    11    17    1
    22    11    27    1
    23    12    28    1
    24    13    14    1
    25    13    16    1
    26    13    21    1
    27    13    29    1
    28    14    15    1
    29    14    30    1
    30    14    31    1
    31    15    18    1
    32    15    32    1
    33    15    33    1
    34    16    19    1
    35    16    34    1
    36    16    35    1
    37    17    36    1
    38    17    37    1
    39    18    19    2
    40    18    20    1
    41    19    38    1
    42    21    22    1
    43    21    23    2
    44    22    42    1
    45    22    43    1
    46    22    44    1
    47    23    46    1
    48    23    47    1
