@<TRIPOS>MOLECULE
IMPHY012366
 39 43 0 0 0
SMALL
GASTEIGER

@<TRIPOS>ATOM
      1 O           8.6480    1.5705    0.0000 O.2     1  UNL1       -0.2666
      2 N           6.9654    1.0205    0.0000 N.ar    1  UNL1       -0.2526
      3 N           6.6028   -0.7181    0.0000 N.ar    1  UNL1       -0.1765
      4 N           4.5124   -0.0969    0.0000 N.ar    1  UNL1       -0.3479
      5 C           5.0091    1.4363    0.0000 C.ar    1  UNL1       -0.0052
      6 C           6.2962    0.2774    0.0000 C.ar    1  UNL1        0.3126
      7 C           5.3181    0.4853    0.0000 C.ar    1  UNL1        0.1353
      8 C           5.6782    2.1795    0.0000 C.3     1  UNL1       -0.0065
      9 C           6.6564    1.9716    0.0000 C.3     1  UNL1        0.0361
     10 C           4.0150    1.4338    0.0000 C.ar    1  UNL1        0.0037
     11 C           3.7086    0.4881    0.0000 C.ar    1  UNL1        0.0474
     12 C           7.9875    0.8197    0.0000 C.ar    1  UNL1        0.2695
     13 C           7.6200   -0.9426    0.0000 C.ar    1  UNL1        0.2216
     14 C           8.3170   -0.1685    0.0000 C.ar    1  UNL1        0.1107
     15 C           3.3334    2.2132    0.0000 C.ar    1  UNL1       -0.0523
     16 C           5.9251   -1.4535    0.0000 C.3     1  UNL1        0.1431
     17 C           2.6994    0.2563    0.0000 C.ar    1  UNL1       -0.0378
     18 C           7.9393   -1.9795    0.0000 C.ar    1  UNL1        0.0106
     19 C           9.3816   -0.3777    0.0000 C.ar    1  UNL1       -0.0430
     20 C           2.3191    2.0049    0.0000 C.ar    1  UNL1       -0.0611
     21 C           2.0000    1.0198    0.0000 C.ar    1  UNL1       -0.0598
     22 C           8.9988   -2.2132    0.0000 C.ar    1  UNL1       -0.0555
     23 C           9.7248   -1.4069    0.0000 C.ar    1  UNL1       -0.0606
     24 H           5.9105    2.7543    0.0000 H       1  UNL1        0.0331
     25 H           5.1524    2.5080    0.0000 H       1  UNL1        0.0331
     26 H           7.2703    2.0578    0.0000 H       1  UNL1        0.0498
     27 H           6.6780    2.5912    0.0000 H       1  UNL1        0.0498
     28 H           4.5113   -0.7169    0.0000 H       1  UNL1        0.1661
     29 H           3.5313    2.8008    0.0000 H       1  UNL1        0.0624
     30 H           5.4692   -1.0333    0.0000 H       1  UNL1        0.0994
     31 H           5.5050   -1.9094    0.0000 H       1  UNL1        0.0994
     32 H           6.3810   -1.8736    0.0000 H       1  UNL1        0.0994
     33 H           2.5152   -0.3357    0.0000 H       1  UNL1        0.0638
     34 H           7.5192   -2.4354    0.0000 H       1  UNL1        0.0683
     35 H           9.7911    0.0879    0.0000 H       1  UNL1        0.0627
     36 H           1.9056    2.4669    0.0000 H       1  UNL1        0.0618
     37 H           1.3942    0.8881    0.0000 H       1  UNL1        0.0618
     38 H           9.1881   -2.8036    0.0000 H       1  UNL1        0.0620
     39 H          10.3318   -1.5335    0.0000 H       1  UNL1        0.0618
@<TRIPOS>UNITY_ATOM_ATTR
3 1
charge 1
@<TRIPOS>BOND
     1     1    12    2
     2     2     6   ar
     3     2     9    1
     4     2    12   ar
     5     3     6   ar
     6     3    13   ar
     7     3    16    1
     8     4     7   ar
     9     4    11   ar
    10     4    28    1
    11     5     7   ar
    12     5     8    1
    13     5    10   ar
    14     6     7    1
    15     8     9    1
    16     8    24    1
    17     8    25    1
    18     9    26    1
    19     9    27    1
    20    10    11   ar
    21    10    15   ar
    22    11    17   ar
    23    12    14   ar
    24    13    14   ar
    25    13    18   ar
    26    14    19   ar
    27    15    20   ar
    28    15    29    1
    29    16    30    1
    30    16    31    1
    31    16    32    1
    32    17    21   ar
    33    17    33    1
    34    18    22   ar
    35    18    34    1
    36    19    23   ar
    37    19    35    1
    38    20    21   ar
    39    20    36    1
    40    21    37    1
    41    22    23   ar
    42    22    38    1
    43    23    39    1
