@<TRIPOS>MOLECULE
IMPHY013570
 39 41 0 0 0
SMALL
GASTEIGER

@<TRIPOS>ATOM
      1 C           4.3067   -1.1138    0.0000 C.3     1  UNL1       -0.0097
      2 C           4.5159   -0.1419    0.0000 C.2     1  UNL1       -0.0605
      3 C           5.3819    0.3581    0.0000 C.3     1  UNL1       -0.0165
      4 C           2.9128   -0.3090    0.0000 C.3     1  UNL1       -0.0128
      5 C           3.3180   -1.2168    0.0000 C.3     1  UNL1       -0.0350
      6 C           3.6499    0.3581    0.0000 C.2     1  UNL1       -0.0638
      7 C           5.2916   -1.3289    0.0000 C.3     1  UNL1       -0.0433
      8 C           5.8863   -0.5148    0.0000 C.3     1  UNL1       -0.0455
      9 C           5.3819    1.3581    0.0000 C.3     1  UNL1       -0.0370
     10 C           3.6499    1.3581    0.0000 C.3     1  UNL1       -0.0307
     11 C           4.5159    1.8581    0.0000 C.3     1  UNL1       -0.0462
     12 C           4.9745   -1.8581    0.0000 C.3     1  UNL1       -0.0558
     13 C           2.0000   -0.7173    0.0000 C.3     1  UNL1       -0.0561
     14 C           2.2424    0.4330    0.0000 C.3     1  UNL1       -0.0561
     15 C           6.2479    1.8581    0.0000 C.3     1  UNL1       -0.0619
     16 H           5.9807    0.5186    0.0000 H       1  UNL1        0.0348
     17 H           2.7284   -1.4086    0.0000 H       1  UNL1        0.0282
     18 H           3.4467   -1.8233    0.0000 H       1  UNL1        0.0282
     19 H           5.0769   -1.9105    0.0000 H       1  UNL1        0.0274
     20 H           5.8380   -1.6219    0.0000 H       1  UNL1        0.0274
     21 H           6.3316   -0.9462    0.0000 H       1  UNL1        0.0271
     22 H           6.3751   -0.1334    0.0000 H       1  UNL1        0.0271
     23 H           5.3819    1.9781    0.0000 H       1  UNL1        0.0304
     24 H           3.4378    1.9407    0.0000 H       1  UNL1        0.0310
     25 H           3.0393    1.2504    0.0000 H       1  UNL1        0.0310
     26 H           4.9144    2.3330    0.0000 H       1  UNL1        0.0271
     27 H           4.1174    2.3330    0.0000 H       1  UNL1        0.0271
     28 H           4.5130   -2.2721    0.0000 H       1  UNL1        0.0238
     29 H           5.3886   -2.3195    0.0000 H       1  UNL1        0.0238
     30 H           5.4360   -1.4440    0.0000 H       1  UNL1        0.0238
     31 H           1.7468   -0.1514    0.0000 H       1  UNL1        0.0238
     32 H           1.4340   -0.9705    0.0000 H       1  UNL1        0.0238
     33 H           2.2532   -1.2833    0.0000 H       1  UNL1        0.0238
     34 H           2.7025    0.8486    0.0000 H       1  UNL1        0.0238
     35 H           1.8268    0.8930    0.0000 H       1  UNL1        0.0238
     36 H           1.7824    0.0173    0.0000 H       1  UNL1        0.0238
     37 H           6.5579    1.3211    0.0000 H       1  UNL1        0.0233
     38 H           6.7849    2.1681    0.0000 H       1  UNL1        0.0233
     39 H           5.9379    2.3950    0.0000 H       1  UNL1        0.0233
@<TRIPOS>BOND
     1     1     2    1
     2     1     5    1
     3     1     7    1
     4     1    12    1
     5     2     3    1
     6     2     6    2
     7     3     8    1
     8     3     9    1
     9     3    16    1
    10     4     5    1
    11     4     6    1
    12     4    13    1
    13     4    14    1
    14     5    17    1
    15     5    18    1
    16     6    10    1
    17     7     8    1
    18     7    19    1
    19     7    20    1
    20     8    21    1
    21     8    22    1
    22     9    11    1
    23     9    15    1
    24     9    23    1
    25    10    11    1
    26    10    24    1
    27    10    25    1
    28    11    26    1
    29    11    27    1
    30    12    28    1
    31    12    29    1
    32    12    30    1
    33    13    31    1
    34    13    32    1
    35    13    33    1
    36    14    34    1
    37    14    35    1
    38    14    36    1
    39    15    37    1
    40    15    38    1
    41    15    39    1
