@<TRIPOS>MOLECULE
IMPHY000666
 33 36 0 0 0
SMALL
GASTEIGER

@<TRIPOS>ATOM
      1 C        2534.5400 2499.9000    0.0000 C.3     1  UNL1        0.0037
      2 C        2534.5400 2459.9000    0.0000 C.3     1  UNL1        0.0413
      3 C        2500.0000 2480.0500    0.0000 C.3     1  UNL1        0.0142
      4 C        2465.4600 2459.9000    0.0000 C.3     1  UNL1        0.0592
      5 C        2465.4600 2499.9000    0.0000 C.3     1  UNL1        0.0078
      6 C        2465.4600 2419.6000    0.0000 C.3     1  UNL1        0.0147
      7 C        2500.0000 2399.4500    0.0000 C.3     1  UNL1        0.0444
      8 C        2534.5400 2419.6000    0.0000 C.3     1  UNL1        0.1688
      9 O        2569.1800 2399.4500    0.0000 O.3     1  UNL1       -0.4523
     10 C        2603.7200 2419.6000    0.0000 C.2     1  UNL1        0.3170
     11 C        2603.7200 2459.9000    0.0000 C.3     1  UNL1        0.1133
     12 C        2569.1800 2480.0500    0.0000 C.3     1  UNL1        0.0547
     13 C        2569.1800 2520.4500    0.0000 C.3     1  UNL1        0.1729
     14 C        2534.5400 2540.6000    0.0000 C.3     1  UNL1        0.2049
     15 C        2500.0000 2520.4500    0.0000 C.3     1  UNL1        0.0478
     16 O        2534.5400 2580.6000    0.0000 O.3     1  UNL1       -0.4486
     17 C        2569.2800 2600.5500    0.0000 C.2     1  UNL1        0.3176
     18 C        2603.9200 2580.6000    0.0000 C.3     1  UNL1        0.1212
     19 O        2569.2800 2640.5500    0.0000 O.2     1  UNL1       -0.2501
     20 O        2603.8200 2500.4000    0.0000 O.3     1  UNL1       -0.4521
     21 C        2638.4600 2520.4500    0.0000 C.2     1  UNL1        0.3174
     22 C        2673.1000 2500.4000    0.0000 C.3     1  UNL1        0.1212
     23 O        2638.4600 2560.4500    0.0000 O.2     1  UNL1       -0.2501
     24 C        2603.8200 2540.4000    0.0000 C.3     1  UNL1        0.0475
     25 O        2638.3600 2399.6500    0.0000 O.2     1  UNL1       -0.2501
     26 C        2430.9200 2399.4500    0.0000 C.3     1  UNL1        0.0257
     27 C        2430.9200 2359.4500    0.0000 C.3     1  UNL1        0.0048
     28 C        2396.3800 2419.6000    0.0000 C.2     1  UNL1        0.0134
     29 C        2396.3800 2459.9000    0.0000 C.2     1  UNL1        0.1689
     30 C        2430.9200 2480.0500    0.0000 C.2     1  UNL1        0.2055
     31 O        2430.9200 2520.0500    0.0000 O.2     1  UNL1       -0.2881
     32 O        2361.7400 2479.9500    0.0000 O.2     1  UNL1       -0.4689
     33 C        2326.9000 2459.9000    0.0000 C.3     1  UNL1        0.2526
@<TRIPOS>BOND
     1     2     1    1
     2     2     3    1
     3     2     8    1
     4     2    12    1
     5     3     4    1
     6     3    15    1
     7     4     5    1
     8     4     6    1
     9     4    30    1
    10     6    26    1
    11     6     7    1
    12     8     7    1
    13     8     9    1
    14     9    10    1
    15    10    25    2
    16    11    10    1
    17    12    11    1
    18    12    13    1
    19    13    14    1
    20    13    20    1
    21    13    24    1
    22    14    16    1
    23    15    14    1
    24    16    17    1
    25    17    18    1
    26    17    19    2
    27    20    21    1
    28    21    22    1
    29    21    23    2
    30    26    27    1
    31    26    28    1
    32    29    28    2
    33    29    32    1
    34    30    29    1
    35    30    31    2
    36    32    33    1
