@<TRIPOS>MOLECULE
IMPHY008804
 140 148 0 0 0
SMALL
GASTEIGER

@<TRIPOS>ATOM
      1 O           2.5745    5.1646    0.0000 O.3     1  UNL1       -0.3876
      2 O           2.6200    8.1053    0.0000 O.3     1  UNL1       -0.3911
      3 O           4.3397   -0.0390    0.0000 O.3     1  UNL1       -0.3480
      4 O           5.4369    9.3490    0.0000 O.3     1  UNL1       -0.4571
      5 O           6.0717   -0.0390    0.0000 O.3     1  UNL1       -0.3456
      6 O           7.1572    8.8841    0.0000 O.2     1  UNL1       -0.2456
      7 O           6.0717   -3.0390    0.0000 O.3     1  UNL1       -0.3452
      8 O           7.8038   -2.0390    0.0000 O.3     1  UNL1       -0.3429
      9 O           7.8038   -3.0390    0.0000 O.3     1  UNL1       -0.3456
     10 O           8.6698   -0.5390    0.0000 O.3     1  UNL1       -0.3456
     11 O           7.8038   -6.0390    0.0000 O.3     1  UNL1       -0.3426
     12 O           9.5358   -5.0390    0.0000 O.3     1  UNL1       -0.3867
     13 O          11.2679   -2.0390    0.0000 O.3     1  UNL1       -0.3890
     14 O          11.2679   -0.0390    0.0000 O.3     1  UNL1       -0.3867
     15 O           6.0717   -6.0390    0.0000 O.3     1  UNL1       -0.3405
     16 O           7.8038   -8.0390    0.0000 O.3     1  UNL1       -0.3841
     17 O           6.0717   -9.0390    0.0000 O.3     1  UNL1       -0.3864
     18 O           4.3397   -8.0390    0.0000 O.3     1  UNL1       -0.3865
     19 O           3.4737   -6.5390    0.0000 O.3     1  UNL1       -0.3924
     20 C           3.4425    5.6612    0.0000 C.3     1  UNL1        0.0775
     21 C           3.4386    4.6612    0.0000 C.3     1  UNL1       -0.0082
     22 C           4.3104    6.1579    0.0000 C.3     1  UNL1        0.0060
     23 C           4.3027    4.1579    0.0000 C.3     1  UNL1       -0.0299
     24 C           4.3148    3.1164    0.0000 C.3     1  UNL1       -0.0259
     25 C           3.4147    2.5921    0.0000 C.3     1  UNL1       -0.0330
     26 C           4.1050    7.1305    0.0000 C.3     1  UNL1        0.0179
     27 C           5.1745    5.6546    0.0000 C.3     1  UNL1       -0.0441
     28 C           5.1707    4.6546    0.0000 C.3     1  UNL1       -0.0488
     29 C           2.7080    6.3312    0.0000 C.3     1  UNL1        0.0035
     30 C           2.5267    4.1579    0.0000 C.3     1  UNL1       -0.0470
     31 C           3.1166    7.2374    0.0000 C.3     1  UNL1        0.0651
     32 C           2.5146    3.1164    0.0000 C.3     1  UNL1       -0.0493
     33 C           5.2647    2.5921    0.0000 C.3     1  UNL1       -0.0448
     34 C           5.1784    6.6546    0.0000 C.3     1  UNL1       -0.0563
     35 C           3.4022    1.5071    0.0000 C.3     1  UNL1       -0.0232
     36 C           5.1789    3.6197    0.0000 C.3     1  UNL1       -0.0590
     37 C           5.2772    1.5071    0.0000 C.3     1  UNL1       -0.0260
     38 C           4.3397    0.9610    0.0000 C.3     1  UNL1        0.0620
     39 C           4.7757    7.8722    0.0000 C.2     1  UNL1       -0.0198
     40 C           4.5698    8.8508    0.0000 C.3     1  UNL1        0.1148
     41 C           5.7700    7.7656    0.0000 C.2     1  UNL1        0.0253
     42 C           6.1786    8.6783    0.0000 C.2     1  UNL1        0.3323
     43 C           5.2057   -0.5390    0.0000 C.3     1  UNL1        0.1624
     44 C           5.2057   -1.5390    0.0000 C.3     1  UNL1        0.0274
     45 C           6.0717   -2.0390    0.0000 C.3     1  UNL1        0.0948
     46 C           6.9378   -0.5390    0.0000 C.3     1  UNL1        0.0875
     47 C           6.9378   -1.5390    0.0000 C.3     1  UNL1        0.1138
     48 C           7.8038   -0.0390    0.0000 C.3     1  UNL1       -0.0361
     49 C           6.9378   -3.5390    0.0000 C.3     1  UNL1        0.1625
     50 C           8.6698   -1.5390    0.0000 C.3     1  UNL1        0.1626
     51 C           6.9378   -4.5390    0.0000 C.3     1  UNL1        0.0273
     52 C           9.5358   -2.0390    0.0000 C.3     1  UNL1        0.0270
     53 C           7.8038   -5.0390    0.0000 C.3     1  UNL1        0.0946
     54 C           8.6698   -3.5390    0.0000 C.3     1  UNL1        0.0871
     55 C           8.6698   -4.5390    0.0000 C.3     1  UNL1        0.1074
     56 C          10.4019   -1.5390    0.0000 C.3     1  UNL1        0.0881
     57 C           9.5358   -0.0390    0.0000 C.3     1  UNL1        0.0871
     58 C          10.4019   -0.5390    0.0000 C.3     1  UNL1        0.1070
     59 C           9.5358   -3.0390    0.0000 C.3     1  UNL1       -0.0361
     60 C           9.5358    0.9610    0.0000 C.3     1  UNL1       -0.0361
     61 C           6.9378   -6.5390    0.0000 C.3     1  UNL1        0.1883
     62 C           6.9378   -7.5390    0.0000 C.3     1  UNL1        0.1341
     63 C           6.0717   -8.0390    0.0000 C.3     1  UNL1        0.1141
     64 C           5.2057   -6.5390    0.0000 C.3     1  UNL1        0.1130
     65 C           5.2057   -7.5390    0.0000 C.3     1  UNL1        0.1119
     66 C           4.3397   -6.0390    0.0000 C.3     1  UNL1        0.0730
     67 H           4.1764    5.0834    0.0000 H       1  UNL1        0.0331
     68 H           5.0405    3.7358    0.0000 H       1  UNL1        0.0310
     69 H           2.6753    2.1728    0.0000 H       1  UNL1        0.0307
     70 H           3.8843    7.7099    0.0000 H       1  UNL1        0.0378
     71 H           5.7847    5.5446    0.0000 H       1  UNL1        0.0272
     72 H           5.3888    6.2364    0.0000 H       1  UNL1        0.0272
     73 H           5.3805    4.0711    0.0000 H       1  UNL1        0.0268
     74 H           5.7817    4.7599    0.0000 H       1  UNL1        0.0268
     75 H           2.1728    6.6440    0.0000 H       1  UNL1        0.0318
     76 H           2.3407    5.8317    0.0000 H       1  UNL1        0.0318
     77 H           2.3244    4.7440    0.0000 H       1  UNL1        0.0269
     78 H           1.9146    4.0589    0.0000 H       1  UNL1        0.0269
     79 H           2.4974    7.2076    0.0000 H       1  UNL1        0.0600
     80 H           1.9050    3.2295    0.0000 H       1  UNL1        0.0268
     81 H           2.2988    2.5351    0.0000 H       1  UNL1        0.0268
     82 H           5.8767    2.4930    0.0000 H       1  UNL1        0.0271
     83 H           5.4670    3.1781    0.0000 H       1  UNL1        0.0271
     84 H           5.4863    6.1164    0.0000 H       1  UNL1        0.0236
     85 H           5.7165    6.9625    0.0000 H       1  UNL1        0.0236
     86 H           4.8704    7.1927    0.0000 H       1  UNL1        0.0236
     87 H           2.7926    1.6203    0.0000 H       1  UNL1        0.0293
     88 H           3.1864    0.9259    0.0000 H       1  UNL1        0.0293
     89 H           5.4909    3.0840    0.0000 H       1  UNL1        0.0235
     90 H           5.7146    3.9318    0.0000 H       1  UNL1        0.0235
     91 H           4.8668    4.1554    0.0000 H       1  UNL1        0.0235
     92 H           5.4930    0.9259    0.0000 H       1  UNL1        0.0290
     93 H           5.8868    1.6203    0.0000 H       1  UNL1        0.0290
     94 H           3.8022    0.6521    0.0000 H       1  UNL1        0.0597
     95 H           2.0388    5.4766    0.0000 H       1  UNL1        0.2102
     96 H           2.0000    8.1077    0.0000 H       1  UNL1        0.2098
     97 H           4.3189    9.4178    0.0000 H       1  UNL1        0.0746
     98 H           3.9798    8.6605    0.0000 H       1  UNL1        0.0746
     99 H           6.0788    7.2280    0.0000 H       1  UNL1        0.0689
    100 H           5.2057    0.0810    0.0000 H       1  UNL1        0.0910
    101 H           4.5951   -1.4313    0.0000 H       1  UNL1        0.0340
    102 H           4.9937   -2.1216    0.0000 H       1  UNL1        0.0340
    103 H           5.5348   -2.3490    0.0000 H       1  UNL1        0.0625
    104 H           6.9378    0.0810    0.0000 H       1  UNL1        0.0621
    105 H           6.9378   -2.1590    0.0000 H       1  UNL1        0.0649
    106 H           8.1138   -0.5759    0.0000 H       1  UNL1        0.0255
    107 H           8.3407    0.2710    0.0000 H       1  UNL1        0.0255
    108 H           7.4938    0.4980    0.0000 H       1  UNL1        0.0255
    109 H           6.9378   -2.9190    0.0000 H       1  UNL1        0.0910
    110 H           8.6698   -2.1590    0.0000 H       1  UNL1        0.0910
    111 H           6.3272   -4.4313    0.0000 H       1  UNL1        0.0340
    112 H           6.7257   -5.1216    0.0000 H       1  UNL1        0.0340
    113 H           9.1373   -2.5139    0.0000 H       1  UNL1        0.0340
    114 H           9.9344   -2.5139    0.0000 H       1  UNL1        0.0340
    115 H           8.3407   -5.3490    0.0000 H       1  UNL1        0.0625
    116 H           8.6698   -2.9190    0.0000 H       1  UNL1        0.0621
    117 H           9.2068   -4.2290    0.0000 H       1  UNL1        0.0645
    118 H          10.4019   -2.1590    0.0000 H       1  UNL1        0.0621
    119 H           8.9989    0.2710    0.0000 H       1  UNL1        0.0621
    120 H          10.9388   -0.8490    0.0000 H       1  UNL1        0.0645
    121 H           9.8458   -3.5759    0.0000 H       1  UNL1        0.0255
    122 H          10.0728   -2.7290    0.0000 H       1  UNL1        0.0255
    123 H           9.2258   -2.5020    0.0000 H       1  UNL1        0.0255
    124 H          10.1558    0.9610    0.0000 H       1  UNL1        0.0255
    125 H           9.5358    1.5810    0.0000 H       1  UNL1        0.0255
    126 H           8.9158    0.9610    0.0000 H       1  UNL1        0.0255
    127 H          10.0728   -4.7290    0.0000 H       1  UNL1        0.2100
    128 H           6.9378   -5.9190    0.0000 H       1  UNL1        0.0938
    129 H          11.8048   -1.7290    0.0000 H       1  UNL1        0.2099
    130 H          11.8048   -0.3490    0.0000 H       1  UNL1        0.2100
    131 H           7.4747   -7.2290    0.0000 H       1  UNL1        0.0671
    132 H           6.6087   -8.3490    0.0000 H       1  UNL1        0.0648
    133 H           5.2057   -5.9190    0.0000 H       1  UNL1        0.0647
    134 H           4.6688   -7.2290    0.0000 H       1  UNL1        0.0647
    135 H           8.3407   -7.7290    0.0000 H       1  UNL1        0.2101
    136 H           4.7382   -5.5640    0.0000 H       1  UNL1        0.0584
    137 H           3.9412   -5.5640    0.0000 H       1  UNL1        0.0584
    138 H           6.6087   -9.3490    0.0000 H       1  UNL1        0.2100
    139 H           4.3397   -8.6590    0.0000 H       1  UNL1        0.2100
    140 H           2.9367   -6.2290    0.0000 H       1  UNL1        0.2095
@<TRIPOS>BOND
     1     1    20    1
     2     1    95    1
     3    31     2    1
     4     2    96    1
     5    38     3    1
     6    43     3    1
     7     4    40    1
     8     4    42    1
     9     5    43    1
    10     5    46    1
    11     6    42    2
    12    45     7    1
    13    49     7    1
    14    47     8    1
    15    50     8    1
    16     9    49    1
    17     9    54    1
    18    10    50    1
    19    10    57    1
    20    53    11    1
    21    61    11    1
    22    55    12    1
    23    12   127    1
    24    56    13    1
    25    13   129    1
    26    58    14    1
    27    14   130    1
    28    15    61    1
    29    15    64    1
    30    62    16    1
    31    16   135    1
    32    63    17    1
    33    17   138    1
    34    65    18    1
    35    18   139    1
    36    19    66    1
    37    19   140    1
    38    20    21    1
    39    20    22    1
    40    20    29    1
    41    21    23    1
    42    21    30    1
    43    21    67    1
    44    22    26    1
    45    22    27    1
    46    22    34    1
    47    23    24    1
    48    23    28    1
    49    23    68    1
    50    24    25    1
    51    24    33    1
    52    24    36    1
    53    25    32    1
    54    25    35    1
    55    25    69    1
    56    26    31    1
    57    26    39    1
    58    26    70    1
    59    27    28    1
    60    27    71    1
    61    27    72    1
    62    28    73    1
    63    28    74    1
    64    29    31    1
    65    29    75    1
    66    29    76    1
    67    30    32    1
    68    30    77    1
    69    30    78    1
    70    31    79    1
    71    32    80    1
    72    32    81    1
    73    33    37    1
    74    33    82    1
    75    33    83    1
    76    34    84    1
    77    34    85    1
    78    34    86    1
    79    35    38    1
    80    35    87    1
    81    35    88    1
    82    36    89    1
    83    36    90    1
    84    36    91    1
    85    37    38    1
    86    37    92    1
    87    37    93    1
    88    38    94    1
    89    39    40    1
    90    39    41    2
    91    40    97    1
    92    40    98    1
    93    41    42    1
    94    41    99    1
    95    43    44    1
    96    43   100    1
    97    44    45    1
    98    44   101    1
    99    44   102    1
   100    45    47    1
   101    45   103    1
   102    46    47    1
   103    46    48    1
   104    46   104    1
   105    47   105    1
   106    48   106    1
   107    48   107    1
   108    48   108    1
   109    49    51    1
   110    49   109    1
   111    50    52    1
   112    50   110    1
   113    51    53    1
   114    51   111    1
   115    51   112    1
   116    52    56    1
   117    52   113    1
   118    52   114    1
   119    53    55    1
   120    53   115    1
   121    54    55    1
   122    54    59    1
   123    54   116    1
   124    55   117    1
   125    56    58    1
   126    56   118    1
   127    57    58    1
   128    57    60    1
   129    57   119    1
   130    58   120    1
   131    59   121    1
   132    59   122    1
   133    59   123    1
   134    60   124    1
   135    60   125    1
   136    60   126    1
   137    61    62    1
   138    61   128    1
   139    62    63    1
   140    62   131    1
   141    63    65    1
   142    63   132    1
   143    64    65    1
   144    64    66    1
   145    64   133    1
   146    65   134    1
   147    66   136    1
   148    66   137    1
