@<TRIPOS>MOLECULE
IMPHY003256
 34 36 0 0 0
SMALL
GASTEIGER

@<TRIPOS>ATOM
      1 O           6.3981   -1.7327    0.0000 O.2     1  UNL1       -0.4590
      2 O           6.3981    1.2673    0.0000 O.2     1  UNL1       -0.2864
      3 O           2.8680   -1.7568    0.0000 O.3     1  UNL1       -0.4950
      4 C           7.2641   -0.2327    0.0000 C.ar    1  UNL1        0.0672
      5 C           5.5320   -0.2327    0.0000 C.ar    1  UNL1        0.0648
      6 C           5.5320   -1.2327    0.0000 C.ar    1  UNL1        0.1422
      7 C           6.3981    0.2673    0.0000 C.ar    1  UNL1        0.2004
      8 C           7.2641   -1.2327    0.0000 C.ar    1  UNL1        0.1139
      9 C           8.1301    0.2673    0.0000 C.ar    1  UNL1       -0.0110
     10 C           4.6381    0.3020    0.0000 C.ar    1  UNL1       -0.0439
     11 C           4.6381   -1.7673    0.0000 C.ar    1  UNL1        0.0231
     12 C           3.7320   -1.2535    0.0000 C.ar    1  UNL1        0.1236
     13 C           8.1301   -1.7327    0.0000 C.3     1  UNL1       -0.0056
     14 C           3.7320   -0.2119    0.0000 C.ar    1  UNL1       -0.0190
     15 C           8.9962   -0.2327    0.0000 C.ar    1  UNL1       -0.0538
     16 C           8.1301    1.2673    0.0000 C.ar    1  UNL1       -0.0538
     17 C           9.8622    0.2673    0.0000 C.ar    1  UNL1       -0.0612
     18 C           8.9962    1.7673    0.0000 C.ar    1  UNL1       -0.0612
     19 C           9.8622    1.2673    0.0000 C.ar    1  UNL1       -0.0617
     20 C           2.0000   -1.2602    0.0000 C.3     1  UNL1        0.0788
     21 H           4.6453    0.9220    0.0000 H       1  UNL1        0.0627
     22 H           4.6453   -2.3873    0.0000 H       1  UNL1        0.0691
     23 H           7.8201   -2.2696    0.0000 H       1  UNL1        0.0308
     24 H           8.6671   -2.0427    0.0000 H       1  UNL1        0.0308
     25 H           8.4401   -1.1957    0.0000 H       1  UNL1        0.0308
     26 H           3.1963    0.1002    0.0000 H       1  UNL1        0.0654
     27 H           8.9962   -0.8527    0.0000 H       1  UNL1        0.0624
     28 H           7.5932    1.5773    0.0000 H       1  UNL1        0.0624
     29 H          10.3991   -0.0427    0.0000 H       1  UNL1        0.0618
     30 H           8.9962    2.3873    0.0000 H       1  UNL1        0.0618
     31 H          10.3991    1.5773    0.0000 H       1  UNL1        0.0618
     32 H           2.3079   -0.7220    0.0000 H       1  UNL1        0.0660
     33 H           1.4619   -0.9522    0.0000 H       1  UNL1        0.0660
     34 H           1.6921   -1.7983    0.0000 H       1  UNL1        0.0660
@<TRIPOS>BOND
     1     1     6   ar
     2     1     8   ar
     3     2     7    2
     4     3    12    1
     5     3    20    1
     6     4     7   ar
     7     4     8   ar
     8     4     9    1
     9     5     6   ar
    10     5     7   ar
    11     5    10   ar
    12     6    11   ar
    13     8    13    1
    14     9    15   ar
    15     9    16   ar
    16    10    14   ar
    17    10    21    1
    18    11    12   ar
    19    11    22    1
    20    12    14   ar
    21    13    23    1
    22    13    24    1
    23    13    25    1
    24    14    26    1
    25    15    17   ar
    26    15    27    1
    27    16    18   ar
    28    16    28    1
    29    17    19   ar
    30    17    29    1
    31    18    19   ar
    32    18    30    1
    33    19    31    1
    34    20    32    1
    35    20    33    1
    36    20    34    1
