@<TRIPOS>MOLECULE
IMPHY001815
 68 72 0 0 0
SMALL
GASTEIGER

@<TRIPOS>ATOM
      1 O           5.4554   -0.8336    0.0000 O.3     1  UNL1       -0.4575
      2 O           9.3108    3.6593    0.0000 O.3     1  UNL1       -0.3886
      3 O           7.4178   -3.5357    0.0000 O.3     1  UNL1       -0.4802
      4 O           5.8602   -2.7781    0.0000 O.2     1  UNL1       -0.2504
      5 O           4.4852    0.6012    0.0000 O.2     1  UNL1       -0.2450
      6 C           7.9845    0.9054    0.0000 C.3     1  UNL1       -0.0201
      7 C           8.0784   -0.1320    0.0000 C.3     1  UNL1       -0.0190
      8 C           7.0835    1.3393    0.0000 C.3     1  UNL1       -0.0312
      9 C           7.2223   -0.7254    0.0000 C.3     1  UNL1        0.0175
     10 C           8.0914    2.0821    0.0000 C.3     1  UNL1       -0.0412
     11 C           7.4845    3.0960    0.0000 C.3     1  UNL1       -0.0116
     12 C           6.8610    2.3142    0.0000 C.3     1  UNL1       -0.0441
     13 C           8.8855    1.3393    0.0000 C.3     1  UNL1       -0.0440
     14 C           6.2140    0.7658    0.0000 C.3     1  UNL1       -0.0120
     15 C           6.2838   -0.2735    0.0000 C.3     1  UNL1        0.1080
     16 C           8.4845    3.0960    0.0000 C.3     1  UNL1        0.0662
     17 C           9.0665   -0.5801    0.0000 C.3     1  UNL1       -0.0467
     18 C           7.2950   -1.8080    0.0000 C.3     1  UNL1        0.0715
     19 C           9.1080    2.3142    0.0000 C.3     1  UNL1       -0.0235
     20 C           8.9002    0.4376    0.0000 C.3     1  UNL1       -0.0586
     21 C           9.1643   -1.6606    0.0000 C.3     1  UNL1       -0.0515
     22 C           8.2726   -2.2787    0.0000 C.3     1  UNL1       -0.0371
     23 C           8.4098    4.0932    0.0000 C.3     1  UNL1       -0.0358
     24 C           6.2975   -1.8788    0.0000 C.3     1  UNL1       -0.0490
     25 C           6.8576   -2.7073    0.0000 C.2     1  UNL1        0.3111
     26 C           4.5561   -0.3962    0.0000 C.2     1  UNL1        0.3395
     27 C           3.7277   -0.9564    0.0000 C.ar    1  UNL1        0.0590
     28 C           2.8284   -0.5190    0.0000 C.ar    1  UNL1       -0.0478
     29 C           3.7986   -1.9539    0.0000 C.ar    1  UNL1       -0.0478
     30 C           2.0000   -1.0792    0.0000 C.ar    1  UNL1       -0.0610
     31 C           2.9702   -2.5140    0.0000 C.ar    1  UNL1       -0.0610
     32 C           2.0709   -2.0766    0.0000 C.ar    1  UNL1       -0.0617
     33 H           6.3177    1.7081    0.0000 H       1  UNL1        0.0308
     34 H           6.5181   -1.2015    0.0000 H       1  UNL1        0.0352
     35 H           8.6614    1.8383    0.0000 H       1  UNL1        0.0274
     36 H           8.4992    2.5492    0.0000 H       1  UNL1        0.0274
     37 H           7.2954    3.9247    0.0000 H       1  UNL1        0.0329
     38 H           6.4745    2.7989    0.0000 H       1  UNL1        0.0272
     39 H           6.3024    2.0452    0.0000 H       1  UNL1        0.0272
     40 H           9.0234    0.7348    0.0000 H       1  UNL1        0.0272
     41 H           9.5055    1.3393    0.0000 H       1  UNL1        0.0272
     42 H           5.9662    1.3342    0.0000 H       1  UNL1        0.0304
     43 H           5.6116    0.6190    0.0000 H       1  UNL1        0.0304
     44 H           5.7268   -0.0012    0.0000 H       1  UNL1        0.0737
     45 H           9.6845   -0.6307    0.0000 H       1  UNL1        0.0271
     46 H           9.2221    0.0201    0.0000 H       1  UNL1        0.0271
     47 H           9.6666    2.0452    0.0000 H       1  UNL1        0.0293
     48 H           9.4946    2.7989    0.0000 H       1  UNL1        0.0293
     49 H           9.2534   -0.0719    0.0000 H       1  UNL1        0.0235
     50 H           9.4098    0.7908    0.0000 H       1  UNL1        0.0235
     51 H           8.5470    0.9472    0.0000 H       1  UNL1        0.0235
     52 H           9.4251   -2.2231    0.0000 H       1  UNL1        0.0266
     53 H           9.7631   -1.4999    0.0000 H       1  UNL1        0.0266
     54 H           7.9119   -2.7831    0.0000 H       1  UNL1        0.0276
     55 H           8.7077   -2.7203    0.0000 H       1  UNL1        0.0276
     56 H           9.0280    4.1396    0.0000 H       1  UNL1        0.0257
     57 H           8.3634    4.7115    0.0000 H       1  UNL1        0.0257
     58 H           7.7915    4.0469    0.0000 H       1  UNL1        0.0257
     59 H           6.2536   -1.2604    0.0000 H       1  UNL1        0.0240
     60 H           5.6791   -1.9228    0.0000 H       1  UNL1        0.0240
     61 H           6.3415   -2.4973    0.0000 H       1  UNL1        0.0240
     62 H           9.8694    3.3903    0.0000 H       1  UNL1        0.2102
     63 H           7.1466   -4.0932    0.0000 H       1  UNL1        0.2951
     64 H           2.7844    0.0994    0.0000 H       1  UNL1        0.0626
     65 H           4.3561   -2.2250    0.0000 H       1  UNL1        0.0626
     66 H           1.4424   -0.8080    0.0000 H       1  UNL1        0.0618
     67 H           3.0141   -3.1324    0.0000 H       1  UNL1        0.0618
     68 H           1.5573   -2.4239    0.0000 H       1  UNL1        0.0618
@<TRIPOS>BOND
     1    15     1    1
     2     1    26    1
     3    16     2    1
     4     2    62    1
     5     3    25    1
     6     3    63    1
     7     4    25    2
     8     5    26    2
     9     6     7    1
    10     6     8    1
    11     6    10    1
    12     6    13    1
    13     7     9    1
    14     7    17    1
    15     7    20    1
    16     8    12    1
    17     8    14    1
    18     8    33    1
    19     9    15    1
    20     9    18    1
    21     9    34    1
    22    10    11    1
    23    10    35    1
    24    10    36    1
    25    11    12    1
    26    11    16    1
    27    11    37    1
    28    12    38    1
    29    12    39    1
    30    13    19    1
    31    13    40    1
    32    13    41    1
    33    14    15    1
    34    14    42    1
    35    14    43    1
    36    15    44    1
    37    16    19    1
    38    16    23    1
    39    17    21    1
    40    17    45    1
    41    17    46    1
    42    18    22    1
    43    18    24    1
    44    18    25    1
    45    19    47    1
    46    19    48    1
    47    20    49    1
    48    20    50    1
    49    20    51    1
    50    21    22    1
    51    21    52    1
    52    21    53    1
    53    22    54    1
    54    22    55    1
    55    23    56    1
    56    23    57    1
    57    23    58    1
    58    24    59    1
    59    24    60    1
    60    24    61    1
    61    26    27    1
    62    27    28   ar
    63    27    29   ar
    64    28    30   ar
    65    28    64    1
    66    29    31   ar
    67    29    65    1
    68    30    32   ar
    69    30    66    1
    70    31    32   ar
    71    31    67    1
    72    32    68    1
