@<TRIPOS>MOLECULE
IMPHY014120
 42 41 0 0 0
SMALL
GASTEIGER

@<TRIPOS>ATOM
      1 O           2.5369    3.5000    0.0000 O.3     1  UNL1       -0.3868
      2 C          11.1972   -1.5000    0.0000 C.3     1  UNL1       -0.0528
      3 C          12.0632   -2.0000    0.0000 C.3     1  UNL1       -0.0533
      4 C          11.1972   -0.5000    0.0000 C.3     1  UNL1       -0.0496
      5 C          12.0632   -3.0000    0.0000 C.3     1  UNL1       -0.0559
      6 C          10.3312   -0.0000    0.0000 C.3     1  UNL1       -0.0347
      7 C          12.9292   -3.5000    0.0000 C.3     1  UNL1       -0.0653
      8 C          10.3312    1.0000    0.0000 C.2     1  UNL1       -0.0870
      9 C           9.4651    1.5000    0.0000 C.2     1  UNL1       -0.0762
     10 C           8.5991    1.0000    0.0000 C.3     1  UNL1        0.0282
     11 C           3.4030    3.0000    0.0000 C.3     1  UNL1        0.0839
     12 C           4.2690    3.5000    0.0000 C.3     1  UNL1        0.0397
     13 C           7.7331    1.5000    0.0000 C.1     1  UNL1       -0.0843
     14 C           3.4030    2.0000    0.0000 C.2     1  UNL1       -0.0621
     15 C           5.1350    3.0000    0.0000 C.1     1  UNL1       -0.0855
     16 C           6.8671    2.0000    0.0000 C.1     1  UNL1       -0.0145
     17 C           2.5369    1.5000    0.0000 C.2     1  UNL1       -0.1002
     18 C           6.0010    2.5000    0.0000 C.1     1  UNL1       -0.0147
     19 H          10.5866   -1.3923    0.0000 H       1  UNL1        0.0265
     20 H          10.9851   -2.0826    0.0000 H       1  UNL1        0.0265
     21 H          12.6738   -2.1077    0.0000 H       1  UNL1        0.0265
     22 H          12.2753   -1.4174    0.0000 H       1  UNL1        0.0265
     23 H          11.8078   -0.6077    0.0000 H       1  UNL1        0.0268
     24 H          11.4092    0.0826    0.0000 H       1  UNL1        0.0268
     25 H          11.4526   -2.8923    0.0000 H       1  UNL1        0.0263
     26 H          11.8512   -3.5826    0.0000 H       1  UNL1        0.0263
     27 H           9.7206    0.1077    0.0000 H       1  UNL1        0.0307
     28 H          10.1191   -0.5826    0.0000 H       1  UNL1        0.0307
     29 H          12.6192   -4.0369    0.0000 H       1  UNL1        0.0230
     30 H          13.4662   -3.8100    0.0000 H       1  UNL1        0.0230
     31 H          13.2392   -2.9631    0.0000 H       1  UNL1        0.0230
     32 H          10.8681    1.3100    0.0000 H       1  UNL1        0.0569
     33 H           9.4651    2.1200    0.0000 H       1  UNL1        0.0578
     34 H           8.2006    0.5251    0.0000 H       1  UNL1        0.0441
     35 H           8.9976    0.5251    0.0000 H       1  UNL1        0.0441
     36 H           3.4030    3.6200    0.0000 H       1  UNL1        0.0647
     37 H           4.6675    3.9750    0.0000 H       1  UNL1        0.0426
     38 H           3.8705    3.9750    0.0000 H       1  UNL1        0.0426
     39 H           3.9399    1.6900    0.0000 H       1  UNL1        0.0592
     40 H           2.0000    3.1900    0.0000 H       1  UNL1        0.2102
     41 H           2.0000    1.8100    0.0000 H       1  UNL1        0.0533
     42 H           2.5369    0.8800    0.0000 H       1  UNL1        0.0533
@<TRIPOS>BOND
     1     1    11    1
     2     1    40    1
     3     2     3    1
     4     2     4    1
     5     2    19    1
     6     2    20    1
     7     3     5    1
     8     3    21    1
     9     3    22    1
    10     4     6    1
    11     4    23    1
    12     4    24    1
    13     5     7    1
    14     5    25    1
    15     5    26    1
    16     6     8    1
    17     6    27    1
    18     6    28    1
    19     7    29    1
    20     7    30    1
    21     7    31    1
    22     8     9    2
    23     8    32    1
    24     9    10    1
    25     9    33    1
    26    10    13    1
    27    10    34    1
    28    10    35    1
    29    11    12    1
    30    11    14    1
    31    11    36    1
    32    12    15    1
    33    12    37    1
    34    12    38    1
    35    13    16    3
    36    14    17    2
    37    14    39    1
    38    15    18    3
    39    16    18    1
    40    17    41    1
    41    17    42    1
