@<TRIPOS>MOLECULE
IMPHY009821
 76 79 0 0 0
SMALL
GASTEIGER

@<TRIPOS>ATOM
      1 O           6.5469   -3.6389    0.0000 O.2     1  UNL1       -0.2924
      2 C           6.5251   -0.6074    0.0000 C.3     1  UNL1       -0.0255
      3 C           6.5251   -1.6074    0.0000 C.3     1  UNL1       -0.0253
      4 C           7.4714   -0.3027    0.0000 C.3     1  UNL1       -0.0328
      5 C           5.6591   -2.1074    0.0000 C.3     1  UNL1        0.0285
      6 C           4.7931   -1.6074    0.0000 C.3     1  UNL1       -0.0215
      7 C           5.6591   -0.1074    0.0000 C.3     1  UNL1       -0.0468
      8 C           7.4714   -1.9122    0.0000 C.3     1  UNL1       -0.0488
      9 C           8.0550   -1.1074    0.0000 C.3     1  UNL1       -0.0492
     10 C           4.7931   -0.6074    0.0000 C.3     1  UNL1       -0.0482
     11 C           3.8831   -2.1143    0.0000 C.3     1  UNL1       -0.0032
     12 C           7.7820    0.6478    0.0000 C.3     1  UNL1       -0.0405
     13 C           6.5251    0.3926    0.0000 C.3     1  UNL1       -0.0590
     14 C           5.6752   -3.1489    0.0000 C.2     1  UNL1        0.1600
     15 C           3.8751   -3.1559    0.0000 C.2     1  UNL1       -0.0382
     16 C           2.9562   -1.5502    0.0000 C.3     1  UNL1       -0.0399
     17 C           8.7605    0.8540    0.0000 C.3     1  UNL1       -0.0499
     18 C           3.8908   -1.1143    0.0000 C.3     1  UNL1       -0.0553
     19 C           4.7771   -3.6767    0.0000 C.2     1  UNL1       -0.0152
     20 C           7.1142    1.3921    0.0000 C.3     1  UNL1       -0.0621
     21 C           2.0084   -2.0781    0.0000 C.3     1  UNL1       -0.0337
     22 C           2.9396   -3.7056    0.0000 C.2     1  UNL1       -0.0619
     23 C           9.0712    1.8046    0.0000 C.3     1  UNL1       -0.0497
     24 C           2.0000   -3.1631    0.0000 C.2     1  UNL1       -0.0837
     25 C          10.0497    2.0108    0.0000 C.3     1  UNL1       -0.0389
     26 C          10.3604    2.9613    0.0000 C.3     1  UNL1       -0.0439
     27 C          10.7175    1.2665    0.0000 C.3     1  UNL1       -0.0528
     28 C          11.3389    3.1675    0.0000 C.3     1  UNL1       -0.0624
     29 C           9.6925    3.7056    0.0000 C.3     1  UNL1       -0.0624
     30 C          11.6960    1.4727    0.0000 C.3     1  UNL1       -0.0650
     31 H           6.6151   -2.4527    0.0000 H       1  UNL1        0.0313
     32 H           8.3111   -0.1708    0.0000 H       1  UNL1        0.0309
     33 H           6.3985   -2.5267    0.0000 H       1  UNL1        0.0386
     34 H           5.5292   -1.1824    0.0000 H       1  UNL1        0.0316
     35 H           6.0576    0.3675    0.0000 H       1  UNL1        0.0271
     36 H           5.2606    0.3675    0.0000 H       1  UNL1        0.0271
     37 H           7.2203   -2.4791    0.0000 H       1  UNL1        0.0268
     38 H           8.0087   -2.2214    0.0000 H       1  UNL1        0.0268
     39 H           8.5158   -1.5222    0.0000 H       1  UNL1        0.0268
     40 H           8.5158   -0.6927    0.0000 H       1  UNL1        0.0268
     41 H           4.5810   -0.0248    0.0000 H       1  UNL1        0.0269
     42 H           4.1825   -0.7151    0.0000 H       1  UNL1        0.0269
     43 H           7.9746    1.2371    0.0000 H       1  UNL1        0.0301
     44 H           7.1451    0.3926    0.0000 H       1  UNL1        0.0235
     45 H           6.5251    1.0126    0.0000 H       1  UNL1        0.0235
     46 H           5.9051    0.3926    0.0000 H       1  UNL1        0.0235
     47 H           3.3645   -1.0835    0.0000 H       1  UNL1        0.0277
     48 H           2.5663   -1.0682    0.0000 H       1  UNL1        0.0277
     49 H           8.7811    0.2344    0.0000 H       1  UNL1        0.0268
     50 H           9.3743    0.7667    0.0000 H       1  UNL1        0.0268
     51 H           4.5108   -1.1191    0.0000 H       1  UNL1        0.0238
     52 H           3.8956   -0.4943    0.0000 H       1  UNL1        0.0238
     53 H           3.2708   -1.1095    0.0000 H       1  UNL1        0.0238
     54 H           4.7795   -4.2967    0.0000 H       1  UNL1        0.0655
     55 H           7.5756    1.8062    0.0000 H       1  UNL1        0.0233
     56 H           6.7001    1.8536    0.0000 H       1  UNL1        0.0233
     57 H           6.6527    0.9781    0.0000 H       1  UNL1        0.0233
     58 H           1.8038   -1.4929    0.0000 H       1  UNL1        0.0308
     59 H           1.3967   -2.1795    0.0000 H       1  UNL1        0.0308
     60 H           2.9420   -4.3256    0.0000 H       1  UNL1        0.0617
     61 H           9.0506    2.4242    0.0000 H       1  UNL1        0.0268
     62 H           8.4574    1.8919    0.0000 H       1  UNL1        0.0268
     63 H           1.4619   -3.4710    0.0000 H       1  UNL1        0.0572
     64 H           9.8571    1.4215    0.0000 H       1  UNL1        0.0303
     65 H          10.5530    3.5506    0.0000 H       1  UNL1        0.0298
     66 H          10.1912    0.9388    0.0000 H       1  UNL1        0.0265
     67 H          10.9488    0.6912    0.0000 H       1  UNL1        0.0265
     68 H          11.4667    2.5608    0.0000 H       1  UNL1        0.0232
     69 H          11.9455    3.2954    0.0000 H       1  UNL1        0.0232
     70 H          11.2110    3.7742    0.0000 H       1  UNL1        0.0232
     71 H          10.1540    4.1197    0.0000 H       1  UNL1        0.0232
     72 H           9.2784    4.1671    0.0000 H       1  UNL1        0.0232
     73 H           9.2310    3.2915    0.0000 H       1  UNL1        0.0232
     74 H          11.8239    0.8660    0.0000 H       1  UNL1        0.0230
     75 H          12.3027    1.6006    0.0000 H       1  UNL1        0.0230
     76 H          11.5682    2.0794    0.0000 H       1  UNL1        0.0230
@<TRIPOS>BOND
     1     1    14    2
     2     2     3    1
     3     2     4    1
     4     2     7    1
     5     2    13    1
     6     3     5    1
     7     3     8    1
     8     3    31    1
     9     4     9    1
    10     4    12    1
    11     4    32    1
    12     5     6    1
    13     5    14    1
    14     5    33    1
    15     6    10    1
    16     6    11    1
    17     6    34    1
    18     7    10    1
    19     7    35    1
    20     7    36    1
    21     8     9    1
    22     8    37    1
    23     8    38    1
    24     9    39    1
    25     9    40    1
    26    10    41    1
    27    10    42    1
    28    11    15    1
    29    11    16    1
    30    11    18    1
    31    12    17    1
    32    12    20    1
    33    12    43    1
    34    13    44    1
    35    13    45    1
    36    13    46    1
    37    14    19    1
    38    15    19    2
    39    15    22    1
    40    16    21    1
    41    16    47    1
    42    16    48    1
    43    17    23    1
    44    17    49    1
    45    17    50    1
    46    18    51    1
    47    18    52    1
    48    18    53    1
    49    19    54    1
    50    20    55    1
    51    20    56    1
    52    20    57    1
    53    21    24    1
    54    21    58    1
    55    21    59    1
    56    22    24    2
    57    22    60    1
    58    25    23    1
    59    23    61    1
    60    23    62    1
    61    24    63    1
    62    25    26    1
    63    25    27    1
    64    25    64    1
    65    26    28    1
    66    26    29    1
    67    26    65    1
    68    27    30    1
    69    27    66    1
    70    27    67    1
    71    28    68    1
    72    28    69    1
    73    28    70    1
    74    29    71    1
    75    29    72    1
    76    29    73    1
    77    30    74    1
    78    30    75    1
    79    30    76    1
