@<TRIPOS>MOLECULE
IMPHY011079
 42 44 0 0 0
SMALL
GASTEIGER

@<TRIPOS>ATOM
      1 O           4.9648    1.8760    0.0000 O.3     1  UNL1       -0.3907
      2 C           4.2278   -0.5909    0.0000 C.3     1  UNL1       -0.0294
      3 C           4.5698   -1.5306    0.0000 C.3     1  UNL1       -0.0294
      4 C           6.2014    0.0274    0.0000 C.3     1  UNL1       -0.0025
      5 C           5.9426   -0.9385    0.0000 C.3     1  UNL1       -0.0025
      6 C           5.4648    1.0100    0.0000 C.3     1  UNL1        0.0665
      7 C           3.2344   -0.6281    0.0000 C.3     1  UNL1       -0.0442
      8 C           3.7849   -2.1405    0.0000 C.3     1  UNL1       -0.0442
      9 C           2.9613   -1.5839    0.0000 C.3     1  UNL1       -0.0343
     10 C           7.6330   -0.1703    0.0000 C.3     1  UNL1       -0.0450
     11 C           7.2142   -1.7332    0.0000 C.3     1  UNL1       -0.0450
     12 C           7.9914   -1.1038    0.0000 C.3     1  UNL1       -0.0519
     13 C           6.4602    0.9933    0.0000 C.3     1  UNL1       -0.0569
     14 C           5.6837   -1.9044    0.0000 C.3     1  UNL1       -0.0569
     15 C           2.0000   -1.3083    0.0000 C.3     1  UNL1       -0.0598
     16 C           2.4021   -2.4130    0.0000 C.3     1  UNL1       -0.0598
     17 H           4.1226    0.0201    0.0000 H       1  UNL1        0.0310
     18 H           4.8854   -2.0643    0.0000 H       1  UNL1        0.0310
     19 H           5.9822    1.3516    0.0000 H       1  UNL1        0.0604
     20 H           3.2764   -0.0096    0.0000 H       1  UNL1        0.0273
     21 H           2.6237   -0.5213    0.0000 H       1  UNL1        0.0273
     22 H           3.3857   -2.6149    0.0000 H       1  UNL1        0.0273
     23 H           4.2147   -2.5874    0.0000 H       1  UNL1        0.0273
     24 H           8.2408   -0.0479    0.0000 H       1  UNL1        0.0271
     25 H           7.6140    0.4494    0.0000 H       1  UNL1        0.0271
     26 H           6.8297   -2.2195    0.0000 H       1  UNL1        0.0271
     27 H           7.6552   -2.1690    0.0000 H       1  UNL1        0.0271
     28 H           8.3290   -1.6238    0.0000 H       1  UNL1        0.0266
     29 H           8.5438   -0.8224    0.0000 H       1  UNL1        0.0266
     30 H           7.0591    0.8329    0.0000 H       1  UNL1        0.0236
     31 H           6.6206    1.5922    0.0000 H       1  UNL1        0.0236
     32 H           5.8613    1.1538    0.0000 H       1  UNL1        0.0236
     33 H           5.0848   -1.7440    0.0000 H       1  UNL1        0.0236
     34 H           5.5233   -2.5033    0.0000 H       1  UNL1        0.0236
     35 H           6.2826   -2.0649    0.0000 H       1  UNL1        0.0236
     36 H           2.1709   -0.7123    0.0000 H       1  UNL1        0.0235
     37 H           1.4040   -1.1374    0.0000 H       1  UNL1        0.0235
     38 H           1.8291   -1.9043    0.0000 H       1  UNL1        0.0235
     39 H           1.8881   -2.0663    0.0000 H       1  UNL1        0.0235
     40 H           2.0554   -2.9270    0.0000 H       1  UNL1        0.0235
     41 H           2.9161   -2.7597    0.0000 H       1  UNL1        0.0235
     42 H           5.2748    2.4130    0.0000 H       1  UNL1        0.2098
@<TRIPOS>BOND
     1     1     6    1
     2     1    42    1
     3     2     3    1
     4     2     4    1
     5     2     7    1
     6     2    17    1
     7     3     5    1
     8     3     8    1
     9     3    18    1
    10     4     6    1
    11     4    10    1
    12     4    13    1
    13     5     6    1
    14     5    11    1
    15     5    14    1
    16     6    19    1
    17     7     9    1
    18     7    20    1
    19     7    21    1
    20     8     9    1
    21     8    22    1
    22     8    23    1
    23     9    15    1
    24     9    16    1
    25    10    12    1
    26    10    24    1
    27    10    25    1
    28    11    12    1
    29    11    26    1
    30    11    27    1
    31    12    28    1
    32    12    29    1
    33    13    30    1
    34    13    31    1
    35    13    32    1
    36    14    33    1
    37    14    34    1
    38    14    35    1
    39    15    36    1
    40    15    37    1
    41    15    38    1
    42    16    39    1
    43    16    40    1
    44    16    41    1
