@<TRIPOS>MOLECULE
IMPHY004077
 25 26 0 0 0
SMALL
GASTEIGER

@<TRIPOS>ATOM
      1 O           3.2040   -1.9068    0.0000 O.2     1  UNL1       -0.2924
      2 C           5.7890   -0.0329    0.0000 C.3     1  UNL1       -0.0185
      3 C           4.6489    0.9242    0.0000 C.3     1  UNL1       -0.0133
      4 C           4.3901   -0.0417    0.0000 C.3     1  UNL1        0.0278
      5 C           3.9123    1.9068    0.0000 C.3     1  UNL1       -0.0356
      6 C           2.6157    0.6130    0.0000 C.2     1  UNL1       -0.0657
      7 C           6.2890   -0.8990    0.0000 C.3     1  UNL1       -0.0586
      8 C           6.6550    0.4671    0.0000 C.3     1  UNL1       -0.0586
      9 C           3.1691   -0.9074    0.0000 C.2     1  UNL1        0.1596
     10 C           2.3400   -0.3482    0.0000 C.2     1  UNL1       -0.0197
     11 C           2.0000    1.4011    0.0000 C.3     1  UNL1       -0.0431
     12 H           5.0992    1.3504    0.0000 H       1  UNL1        0.0351
     13 H           4.5801   -0.6319    0.0000 H       1  UNL1        0.0386
     14 H           4.2301    2.4392    0.0000 H       1  UNL1        0.0278
     15 H           3.2992    1.9988    0.0000 H       1  UNL1        0.0278
     16 H           5.7521   -1.2090    0.0000 H       1  UNL1        0.0235
     17 H           6.5990   -1.4359    0.0000 H       1  UNL1        0.0235
     18 H           6.8260   -0.5890    0.0000 H       1  UNL1        0.0235
     19 H           6.9650   -0.0699    0.0000 H       1  UNL1        0.0235
     20 H           7.1920    0.7771    0.0000 H       1  UNL1        0.0235
     21 H           6.3450    1.0040    0.0000 H       1  UNL1        0.0235
     22 H           1.7574   -0.5603    0.0000 H       1  UNL1        0.0652
     23 H           2.4886    1.7828    0.0000 H       1  UNL1        0.0275
     24 H           1.6183    1.8896    0.0000 H       1  UNL1        0.0275
     25 H           1.5114    1.0194    0.0000 H       1  UNL1        0.0275
@<TRIPOS>BOND
     1     1     9    2
     2     2     3    1
     3     2     4    1
     4     2     7    1
     5     2     8    1
     6     3     5    1
     7     3     6    1
     8     3    12    1
     9     4     5    1
    10     4     9    1
    11     4    13    1
    12     5    14    1
    13     5    15    1
    14     6    10    2
    15     6    11    1
    16     7    16    1
    17     7    17    1
    18     7    18    1
    19     8    19    1
    20     8    20    1
    21     8    21    1
    22     9    10    1
    23    10    22    1
    24    11    23    1
    25    11    24    1
    26    11    25    1
