@<TRIPOS>MOLECULE
IMPHY008774
 37 39 0 0 0
SMALL
GASTEIGER

@<TRIPOS>ATOM
      1 O          11.2774    0.8997    0.0000 O.3     1  UNL1       -0.4526
      2 O          11.2774   -0.7097    0.0000 O.3     1  UNL1       -0.4526
      3 O           4.2690   -1.9050    0.0000 O.3     1  UNL1       -0.4914
      4 O           4.2690    2.0950    0.0000 O.3     1  UNL1       -0.5059
      5 O           2.5369   -0.9050    0.0000 O.3     1  UNL1       -0.5032
      6 O           6.0010    2.0950    0.0000 O.2     1  UNL1       -0.2872
      7 C          10.3312    0.5950    0.0000 C.ar    1  UNL1        0.1668
      8 C          10.3312   -0.4050    0.0000 C.ar    1  UNL1        0.1663
      9 C           8.5991    0.5950    0.0000 C.ar    1  UNL1       -0.0212
     10 C           9.4651    1.0950    0.0000 C.ar    1  UNL1       -0.0090
     11 C           9.4651   -0.9050    0.0000 C.ar    1  UNL1       -0.0156
     12 C           8.5991   -0.4050    0.0000 C.ar    1  UNL1       -0.0509
     13 C           5.1350    0.5950    0.0000 C.ar    1  UNL1        0.0667
     14 C          11.8610    0.0950    0.0000 C.3     1  UNL1        0.2332
     15 C           7.7331    1.0950    0.0000 C.2     1  UNL1       -0.0508
     16 C           6.0010    1.0950    0.0000 C.2     1  UNL1        0.1897
     17 C           5.1350   -0.4050    0.0000 C.ar    1  UNL1       -0.0020
     18 C           4.2690    1.0950    0.0000 C.ar    1  UNL1        0.1313
     19 C           6.8671    0.5950    0.0000 C.2     1  UNL1       -0.0137
     20 C           4.2690   -0.9050    0.0000 C.ar    1  UNL1        0.1622
     21 C           3.4030   -0.4050    0.0000 C.ar    1  UNL1        0.1620
     22 C           3.4030    0.5950    0.0000 C.ar    1  UNL1        0.0257
     23 C           3.4030   -2.4050    0.0000 C.3     1  UNL1        0.0790
     24 H           9.4651    1.7150    0.0000 H       1  UNL1        0.0661
     25 H           9.4651   -1.5250    0.0000 H       1  UNL1        0.0655
     26 H           8.0622   -0.7150    0.0000 H       1  UNL1        0.0625
     27 H          12.3219   -0.3197    0.0000 H       1  UNL1        0.1166
     28 H          12.3219    0.5097    0.0000 H       1  UNL1        0.1166
     29 H           7.7331    1.7150    0.0000 H       1  UNL1        0.0625
     30 H           5.6720   -0.7150    0.0000 H       1  UNL1        0.0663
     31 H           6.8671   -0.0250    0.0000 H       1  UNL1        0.0656
     32 H           2.8660    0.9050    0.0000 H       1  UNL1        0.0692
     33 H           3.7320    2.4050    0.0000 H       1  UNL1        0.2922
     34 H           2.0000   -0.5950    0.0000 H       1  UNL1        0.2923
     35 H           3.0930   -1.8681    0.0000 H       1  UNL1        0.0660
     36 H           2.8660   -2.7150    0.0000 H       1  UNL1        0.0660
     37 H           3.7130   -2.9419    0.0000 H       1  UNL1        0.0660
@<TRIPOS>BOND
     1     1     7    1
     2     1    14    1
     3     2     8    1
     4     2    14    1
     5     3    20    1
     6     3    23    1
     7     4    18    1
     8     4    33    1
     9     5    21    1
    10     5    34    1
    11     6    16    2
    12     7     8   ar
    13     7    10   ar
    14     8    11   ar
    15     9    10   ar
    16     9    12   ar
    17     9    15    1
    18    10    24    1
    19    11    12   ar
    20    11    25    1
    21    12    26    1
    22    13    16    1
    23    13    17   ar
    24    13    18   ar
    25    14    27    1
    26    14    28    1
    27    15    19    2
    28    15    29    1
    29    16    19    1
    30    17    20   ar
    31    17    30    1
    32    18    22   ar
    33    19    31    1
    34    20    21   ar
    35    21    22   ar
    36    22    32    1
    37    23    35    1
    38    23    36    1
    39    23    37    1
