@<TRIPOS>MOLECULE
IMPHY000262
 72 76 0 0 0
SMALL
GASTEIGER

@<TRIPOS>ATOM
      1 O           6.8671   -3.6796    0.0000 O.3     1  UNL1       -0.3366
      2 O           7.8376   -2.1850    0.0000 O.3     1  UNL1       -0.3405
      3 O           5.1350   -1.6796    0.0000 O.3     1  UNL1       -0.3313
      4 O           5.1350   -4.6796    0.0000 O.3     1  UNL1       -0.3863
      5 O           6.8671   -1.6796    0.0000 O.3     1  UNL1       -0.4606
      6 O           3.4030   -3.6796    0.0000 O.3     1  UNL1       -0.3865
      7 O           8.8546   -4.5644    0.0000 O.3     1  UNL1       -0.3841
      8 O          10.3103   -2.9477    0.0000 O.3     1  UNL1       -0.3864
      9 O           2.5369   -2.1796    0.0000 O.3     1  UNL1       -0.3924
     10 O          10.2170   -0.9591    0.0000 O.3     1  UNL1       -0.3924
     11 O           8.6230    1.3829    0.0000 O.2     1  UNL1       -0.4544
     12 O           5.1208    1.3996    0.0000 O.3     1  UNL1       -0.5058
     13 O           6.0308    2.8930    0.0000 O.2     1  UNL1       -0.2869
     14 O          12.0910    2.3696    0.0000 O.3     1  UNL1       -0.4914
     15 O          12.0987    4.3696    0.0000 O.3     1  UNL1       -0.5033
     16 C           6.0010   -3.1796    0.0000 C.3     1  UNL1        0.1519
     17 C           5.1350   -3.6796    0.0000 C.3     1  UNL1        0.1155
     18 C           4.2690   -3.1796    0.0000 C.3     1  UNL1        0.1120
     19 C           7.7331   -3.1796    0.0000 C.3     1  UNL1        0.1886
     20 C           8.6466   -3.5863    0.0000 C.3     1  UNL1        0.1341
     21 C           6.0010   -2.1796    0.0000 C.3     1  UNL1        0.2312
     22 C           4.2690   -2.1796    0.0000 C.3     1  UNL1        0.1140
     23 C           9.3158   -2.8432    0.0000 C.3     1  UNL1        0.1141
     24 C           8.8158   -1.9771    0.0000 C.3     1  UNL1        0.1131
     25 C           3.4030   -1.6796    0.0000 C.3     1  UNL1        0.0731
     26 C           9.2225   -1.0636    0.0000 C.3     1  UNL1        0.0730
     27 C           6.8671   -0.6796    0.0000 C.ar    1  UNL1        0.1310
     28 C           7.7671   -0.1553    0.0000 C.ar    1  UNL1        0.0235
     29 C           5.9670   -0.1553    0.0000 C.ar    1  UNL1        0.0226
     30 C           7.7551    0.8863    0.0000 C.ar    1  UNL1        0.1462
     31 C           5.9790    0.8863    0.0000 C.ar    1  UNL1        0.1347
     32 C           6.8910    1.3896    0.0000 C.ar    1  UNL1        0.1055
     33 C           6.8948    2.3896    0.0000 C.ar    1  UNL1        0.1966
     34 C           8.6269    2.3829    0.0000 C.ar    1  UNL1        0.1393
     35 C           7.7628    2.8863    0.0000 C.ar    1  UNL1        0.0288
     36 C           9.4948    2.8796    0.0000 C.ar    1  UNL1        0.0211
     37 C          10.3589    2.3763    0.0000 C.ar    1  UNL1       -0.0057
     38 C           9.4987    3.8796    0.0000 C.ar    1  UNL1       -0.0474
     39 C          11.2269    2.8729    0.0000 C.ar    1  UNL1        0.1619
     40 C          10.3666    4.3762    0.0000 C.ar    1  UNL1       -0.0159
     41 C          11.2307    3.8729    0.0000 C.ar    1  UNL1        0.1585
     42 C          12.9589    2.8662    0.0000 C.3     1  UNL1        0.0790
     43 H           6.0010   -3.7996    0.0000 H       1  UNL1        0.0687
     44 H           4.5981   -3.9896    0.0000 H       1  UNL1        0.0648
     45 H           3.7320   -2.8696    0.0000 H       1  UNL1        0.0647
     46 H           7.7655   -3.7987    0.0000 H       1  UNL1        0.0938
     47 H           9.2455   -3.7468    0.0000 H       1  UNL1        0.0671
     48 H           6.5380   -2.4896    0.0000 H       1  UNL1        0.1084
     49 H           4.2690   -1.5596    0.0000 H       1  UNL1        0.0647
     50 H           9.6534   -2.3232    0.0000 H       1  UNL1        0.0648
     51 H           8.4256   -1.4953    0.0000 H       1  UNL1        0.0647
     52 H           3.8015   -1.2046    0.0000 H       1  UNL1        0.0584
     53 H           3.0044   -1.2046    0.0000 H       1  UNL1        0.0584
     54 H           9.2658   -0.4451    0.0000 H       1  UNL1        0.0584
     55 H           8.6209   -0.9136    0.0000 H       1  UNL1        0.0584
     56 H           4.5981   -4.9896    0.0000 H       1  UNL1        0.2100
     57 H           3.4030   -4.2996    0.0000 H       1  UNL1        0.2100
     58 H           9.4442   -4.7560    0.0000 H       1  UNL1        0.2101
     59 H          10.5625   -3.5141    0.0000 H       1  UNL1        0.2100
     60 H           2.0000   -1.8696    0.0000 H       1  UNL1        0.2095
     61 H          10.4692   -0.3927    0.0000 H       1  UNL1        0.2095
     62 H           8.3064   -0.4611    0.0000 H       1  UNL1        0.0691
     63 H           5.4277   -0.4611    0.0000 H       1  UNL1        0.0691
     64 H           7.7652    3.5063    0.0000 H       1  UNL1        0.0693
     65 H           4.5792    1.0979    0.0000 H       1  UNL1        0.2922
     66 H          10.3565    1.7563    0.0000 H       1  UNL1        0.0662
     67 H           8.9630    4.1916    0.0000 H       1  UNL1        0.0626
     68 H          10.3690    4.9962    0.0000 H       1  UNL1        0.0655
     69 H          12.1011    4.9896    0.0000 H       1  UNL1        0.2923
     70 H          13.2668    2.3281    0.0000 H       1  UNL1        0.0660
     71 H          13.4970    3.1742    0.0000 H       1  UNL1        0.0660
     72 H          12.6510    3.4044    0.0000 H       1  UNL1        0.0660
@<TRIPOS>BOND
     1    16     1    1
     2    19     1    1
     3     2    19    1
     4     2    24    1
     5     3    21    1
     6     3    22    1
     7    17     4    1
     8     4    56    1
     9    21     5    1
    10     5    27    1
    11    18     6    1
    12     6    57    1
    13    20     7    1
    14     7    58    1
    15    23     8    1
    16     8    59    1
    17     9    25    1
    18     9    60    1
    19    10    26    1
    20    10    61    1
    21    11    30   ar
    22    11    34   ar
    23    12    31    1
    24    12    65    1
    25    13    33    2
    26    14    39    1
    27    14    42    1
    28    15    41    1
    29    15    69    1
    30    16    17    1
    31    16    21    1
    32    16    43    1
    33    17    18    1
    34    17    44    1
    35    18    22    1
    36    18    45    1
    37    19    20    1
    38    19    46    1
    39    20    23    1
    40    20    47    1
    41    21    48    1
    42    22    25    1
    43    22    49    1
    44    23    24    1
    45    23    50    1
    46    24    26    1
    47    24    51    1
    48    25    52    1
    49    25    53    1
    50    26    54    1
    51    26    55    1
    52    27    28   ar
    53    27    29   ar
    54    28    30   ar
    55    28    62    1
    56    29    31   ar
    57    29    63    1
    58    30    32   ar
    59    31    32   ar
    60    32    33   ar
    61    33    35   ar
    62    34    35   ar
    63    34    36    1
    64    35    64    1
    65    36    37   ar
    66    36    38   ar
    67    37    39   ar
    68    37    66    1
    69    38    40   ar
    70    38    67    1
    71    39    41   ar
    72    40    41   ar
    73    40    68    1
    74    42    70    1
    75    42    71    1
    76    42    72    1
