@<TRIPOS>MOLECULE
IMPHY005726
 81 86 0 0 0
SMALL
GASTEIGER

@<TRIPOS>ATOM
      1 O           7.5330    0.8748    0.0000 O.3     1  UNL1       -0.3678
      2 O           7.6464    3.2712    0.0000 O.3     1  UNL1       -0.3911
      3 O           2.1233   -2.9612    0.0000 O.3     1  UNL1       -0.3912
      4 C           6.7804    0.7712    0.0000 C.3     1  UNL1        0.0091
      5 C           7.6464    0.2712    0.0000 C.3     1  UNL1        0.0970
      6 C           5.8704    0.2643    0.0000 C.3     1  UNL1       -0.0169
      7 C           8.5124    0.7712    0.0000 C.3     1  UNL1        0.0028
      8 C           8.5124    1.7712    0.0000 C.3     1  UNL1        0.0258
      9 C           5.8623   -0.7773    0.0000 C.3     1  UNL1       -0.0112
     10 C           4.9269   -1.3270    0.0000 C.3     1  UNL1       -0.0218
     11 C           6.7804    1.7712    0.0000 C.3     1  UNL1       -0.0174
     12 C           7.6464    2.2712    0.0000 C.3     1  UNL1        0.0639
     13 C           3.9873   -0.7845    0.0000 C.3     1  UNL1       -0.0276
     14 C           4.9435    0.8284    0.0000 C.3     1  UNL1       -0.0462
     15 C           7.9330    1.5676    0.0000 C.3     1  UNL1        0.0572
     16 C           9.4064    0.2365    0.0000 C.3     1  UNL1       -0.0414
     17 C           9.4064    2.3058    0.0000 C.3     1  UNL1       -0.0421
     18 C           7.6624   -0.7703    0.0000 C.2     1  UNL1       -0.0554
     19 C           3.9956    0.3005    0.0000 C.3     1  UNL1       -0.0486
     20 C           6.1376    1.5372    0.0000 C.3     1  UNL1       -0.0560
     21 C           6.7644   -1.2981    0.0000 C.2     1  UNL1       -0.0811
     22 C          10.3124    0.7504    0.0000 C.3     1  UNL1       -0.0345
     23 C           2.9999   -1.3344    0.0000 C.3     1  UNL1       -0.0056
     24 C           5.5356    1.2066    0.0000 C.3     1  UNL1       -0.0584
     25 C           4.9443   -2.4570    0.0000 C.3     1  UNL1       -0.0444
     26 C          10.3124    1.7920    0.0000 C.3     1  UNL1       -0.0472
     27 C           5.7929   -1.8270    0.0000 C.3     1  UNL1       -0.0587
     28 C           2.9912   -2.4645    0.0000 C.3     1  UNL1        0.0606
     29 C           3.9700   -3.0296    0.0000 C.3     1  UNL1       -0.0258
     30 C          11.3124    0.7465    0.0000 C.3     1  UNL1       -0.0598
     31 C          10.8091   -0.1176    0.0000 C.3     1  UNL1       -0.0598
     32 C           2.0000   -1.3228    0.0000 C.3     1  UNL1       -0.0572
     33 C           2.5100   -0.4627    0.0000 C.3     1  UNL1       -0.0572
     34 H           8.5124   -0.0788    0.0000 H       1  UNL1        0.0339
     35 H           5.8656   -1.6272    0.0000 H       1  UNL1        0.0354
     36 H           6.5683    2.3538    0.0000 H       1  UNL1        0.0297
     37 H           6.1698    1.6635    0.0000 H       1  UNL1        0.0297
     38 H           8.1833    2.5812    0.0000 H       1  UNL1        0.0600
     39 H           3.2561   -0.3510    0.0000 H       1  UNL1        0.0312
     40 H           5.3517    1.2951    0.0000 H       1  UNL1        0.0271
     41 H           4.5536    1.3105    0.0000 H       1  UNL1        0.0271
     42 H           7.9016    2.1868    0.0000 H       1  UNL1        0.0567
     43 H           7.3302    1.7128    0.0000 H       1  UNL1        0.0567
     44 H           9.0018   -0.2333    0.0000 H       1  UNL1        0.0274
     45 H           9.8000   -0.2425    0.0000 H       1  UNL1        0.0274
     46 H           9.8000    2.7849    0.0000 H       1  UNL1        0.0272
     47 H           9.0018    2.7756    0.0000 H       1  UNL1        0.0272
     48 H           8.2029   -1.0741    0.0000 H       1  UNL1        0.0598
     49 H           3.7911    0.8858    0.0000 H       1  UNL1        0.0268
     50 H           3.3840    0.1991    0.0000 H       1  UNL1        0.0268
     51 H           6.6125    1.9358    0.0000 H       1  UNL1        0.0236
     52 H           5.7390    2.0122    0.0000 H       1  UNL1        0.0236
     53 H           5.6626    1.1387    0.0000 H       1  UNL1        0.0236
     54 H           6.7668   -1.9181    0.0000 H       1  UNL1        0.0573
     55 H           6.1198    1.4142    0.0000 H       1  UNL1        0.0235
     56 H           5.3280    1.7909    0.0000 H       1  UNL1        0.0235
     57 H           4.9514    0.9991    0.0000 H       1  UNL1        0.0235
     58 H           5.1624   -3.0374    0.0000 H       1  UNL1        0.0272
     59 H           5.5535   -2.3415    0.0000 H       1  UNL1        0.0272
     60 H          10.9233    1.6859    0.0000 H       1  UNL1        0.0271
     61 H          10.5215    2.3757    0.0000 H       1  UNL1        0.0271
     62 H           5.4829   -2.3639    0.0000 H       1  UNL1        0.0235
     63 H           6.3299   -2.1370    0.0000 H       1  UNL1        0.0235
     64 H           6.1029   -1.2900    0.0000 H       1  UNL1        0.0235
     65 H           2.9900   -3.0845    0.0000 H       1  UNL1        0.0599
     66 H           3.5727   -3.5056    0.0000 H       1  UNL1        0.0290
     67 H           4.3709   -3.5025    0.0000 H       1  UNL1        0.0290
     68 H           7.1095    3.5812    0.0000 H       1  UNL1        0.2098
     69 H          10.2710   -0.4255    0.0000 H       1  UNL1        0.0235
     70 H          11.1170   -0.6557    0.0000 H       1  UNL1        0.0235
     71 H          11.3472    0.1904    0.0000 H       1  UNL1        0.0235
     72 H          11.3100    0.1265    0.0000 H       1  UNL1        0.0235
     73 H          11.9324    0.7441    0.0000 H       1  UNL1        0.0235
     74 H          11.3148    1.3665    0.0000 H       1  UNL1        0.0235
     75 H           3.0505   -0.1589    0.0000 H       1  UNL1        0.0236
     76 H           2.2062    0.0778    0.0000 H       1  UNL1        0.0236
     77 H           1.9695   -0.7664    0.0000 H       1  UNL1        0.0236
     78 H           2.0072   -0.7029    0.0000 H       1  UNL1        0.0236
     79 H           1.3800   -1.3157    0.0000 H       1  UNL1        0.0236
     80 H           1.9928   -1.9428    0.0000 H       1  UNL1        0.0236
     81 H           2.1209   -3.5812    0.0000 H       1  UNL1        0.2098
@<TRIPOS>BOND
     1     1     5    1
     2     1    15    1
     3    12     2    1
     4     2    68    1
     5    28     3    1
     6     3    81    1
     7     4     5    1
     8     4     6    1
     9     4    11    1
    10     4    20    1
    11     5     7    1
    12     5    18    1
    13     6     9    1
    14     6    14    1
    15     6    24    1
    16     7     8    1
    17     7    16    1
    18     7    34    1
    19     8    12    1
    20     8    15    1
    21     8    17    1
    22     9    10    1
    23     9    21    1
    24     9    35    1
    25    10    13    1
    26    10    25    1
    27    10    27    1
    28    11    12    1
    29    11    36    1
    30    11    37    1
    31    12    38    1
    32    13    19    1
    33    13    23    1
    34    13    39    1
    35    14    19    1
    36    14    40    1
    37    14    41    1
    38    15    42    1
    39    15    43    1
    40    16    22    1
    41    16    44    1
    42    16    45    1
    43    17    26    1
    44    17    46    1
    45    17    47    1
    46    18    21    2
    47    18    48    1
    48    19    49    1
    49    19    50    1
    50    20    51    1
    51    20    52    1
    52    20    53    1
    53    21    54    1
    54    22    26    1
    55    22    30    1
    56    22    31    1
    57    23    28    1
    58    23    32    1
    59    23    33    1
    60    24    55    1
    61    24    56    1
    62    24    57    1
    63    25    29    1
    64    25    58    1
    65    25    59    1
    66    26    60    1
    67    26    61    1
    68    27    62    1
    69    27    63    1
    70    27    64    1
    71    28    29    1
    72    28    65    1
    73    29    66    1
    74    29    67    1
    75    30    72    1
    76    30    73    1
    77    30    74    1
    78    31    69    1
    79    31    70    1
    80    31    71    1
    81    32    78    1
    82    32    79    1
    83    32    80    1
    84    33    75    1
    85    33    76    1
    86    33    77    1
