@<TRIPOS>MOLECULE
IMPHY012772
 62 63 0 0 0
SMALL
GASTEIGER

@<TRIPOS>ATOM
      1 O           6.4641    2.5950    0.0000 O.2     1  UNL1       -0.2705
      2 O           8.1962    6.5950    0.0000 O.3     1  UNL1       -0.5068
      3 N           8.1962    2.5950    0.0000 N.am    1  UNL1       -0.2820
      4 C           3.0000   -5.4050    0.0000 C.3     1  UNL1       -0.0099
      5 C           3.0000   -6.4050    0.0000 C.3     1  UNL1       -0.0436
      6 C           3.8660   -6.9050    0.0000 C.3     1  UNL1       -0.0486
      7 C           3.8660   -4.9050    0.0000 C.2     1  UNL1       -0.0427
      8 C           4.7320   -6.4050    0.0000 C.3     1  UNL1       -0.0314
      9 C           4.7320   -5.4050    0.0000 C.2     1  UNL1       -0.0689
     10 C           2.0000   -5.4050    0.0000 C.3     1  UNL1       -0.0558
     11 C           2.5000   -4.5390    0.0000 C.3     1  UNL1       -0.0558
     12 C           3.8660   -3.9050    0.0000 C.2     1  UNL1       -0.0579
     13 C           5.5981   -4.9050    0.0000 C.3     1  UNL1       -0.0432
     14 C           4.7320   -3.4050    0.0000 C.2     1  UNL1       -0.0586
     15 C           4.7320   -2.4050    0.0000 C.2     1  UNL1       -0.0504
     16 C           3.8660   -1.9050    0.0000 C.3     1  UNL1       -0.0397
     17 C           5.5981   -1.9050    0.0000 C.2     1  UNL1       -0.0588
     18 C           5.5981   -0.9050    0.0000 C.2     1  UNL1       -0.0613
     19 C           6.4641   -0.4050    0.0000 C.2     1  UNL1       -0.0587
     20 C           6.4641    0.5950    0.0000 C.2     1  UNL1       -0.0455
     21 C           7.3301    1.0950    0.0000 C.2     1  UNL1        0.0034
     22 C           5.5981    1.0950    0.0000 C.3     1  UNL1       -0.0395
     23 C           7.3301    2.0950    0.0000 C.2     1  UNL1        0.2413
     24 C           8.1962    3.5950    0.0000 C.ar    1  UNL1        0.0339
     25 C           7.3301    4.0950    0.0000 C.ar    1  UNL1       -0.0370
     26 C           9.0622    4.0950    0.0000 C.ar    1  UNL1       -0.0370
     27 C           7.3301    5.0950    0.0000 C.ar    1  UNL1       -0.0184
     28 C           9.0622    5.0950    0.0000 C.ar    1  UNL1       -0.0184
     29 C           8.1962    5.5950    0.0000 C.ar    1  UNL1        0.1170
     30 H           2.3894   -6.2973    0.0000 H       1  UNL1        0.0274
     31 H           2.7880   -6.9876    0.0000 H       1  UNL1        0.0274
     32 H           3.4675   -7.3800    0.0000 H       1  UNL1        0.0269
     33 H           4.2646   -7.3800    0.0000 H       1  UNL1        0.0269
     34 H           4.9441   -6.9876    0.0000 H       1  UNL1        0.0310
     35 H           5.3426   -6.2973    0.0000 H       1  UNL1        0.0310
     36 H           2.0000   -4.7850    0.0000 H       1  UNL1        0.0238
     37 H           1.3800   -5.4050    0.0000 H       1  UNL1        0.0238
     38 H           2.0000   -6.0250    0.0000 H       1  UNL1        0.0238
     39 H           3.0369   -4.2290    0.0000 H       1  UNL1        0.0238
     40 H           2.1900   -4.0020    0.0000 H       1  UNL1        0.0238
     41 H           1.9631   -4.8490    0.0000 H       1  UNL1        0.0238
     42 H           3.3291   -3.5950    0.0000 H       1  UNL1        0.0621
     43 H           5.9081   -5.4419    0.0000 H       1  UNL1        0.0275
     44 H           6.1350   -4.5950    0.0000 H       1  UNL1        0.0275
     45 H           5.2881   -4.3681    0.0000 H       1  UNL1        0.0275
     46 H           5.2690   -3.7150    0.0000 H       1  UNL1        0.0620
     47 H           4.1760   -1.3681    0.0000 H       1  UNL1        0.0278
     48 H           3.3291   -1.5950    0.0000 H       1  UNL1        0.0278
     49 H           3.5560   -2.4419    0.0000 H       1  UNL1        0.0278
     50 H           6.1350   -2.2150    0.0000 H       1  UNL1        0.0620
     51 H           5.0611   -0.5950    0.0000 H       1  UNL1        0.0618
     52 H           7.0010   -0.7150    0.0000 H       1  UNL1        0.0620
     53 H           7.8671    0.7850    0.0000 H       1  UNL1        0.0672
     54 H           5.9081    1.6319    0.0000 H       1  UNL1        0.0278
     55 H           5.0611    1.4050    0.0000 H       1  UNL1        0.0278
     56 H           5.2881    0.5581    0.0000 H       1  UNL1        0.0278
     57 H           8.7331    2.2850    0.0000 H       1  UNL1        0.1551
     58 H           6.7932    3.7850    0.0000 H       1  UNL1        0.0637
     59 H           9.5991    3.7850    0.0000 H       1  UNL1        0.0637
     60 H           6.7932    5.4050    0.0000 H       1  UNL1        0.0655
     61 H           9.5991    5.4050    0.0000 H       1  UNL1        0.0655
     62 H           8.7331    6.9050    0.0000 H       1  UNL1        0.2921
@<TRIPOS>BOND
     1     1    23    2
     2     2    29    1
     3     2    62    1
     4     3    23   am
     5     3    24    1
     6     3    57    1
     7     4     5    1
     8     4     7    1
     9     4    10    1
    10     4    11    1
    11     5     6    1
    12     5    30    1
    13     5    31    1
    14     6     8    1
    15     6    32    1
    16     6    33    1
    17     7     9    2
    18     7    12    1
    19     8     9    1
    20     8    34    1
    21     8    35    1
    22     9    13    1
    23    10    36    1
    24    10    37    1
    25    10    38    1
    26    11    39    1
    27    11    40    1
    28    11    41    1
    29    12    14    2
    30    12    42    1
    31    13    43    1
    32    13    44    1
    33    13    45    1
    34    14    15    1
    35    14    46    1
    36    15    16    1
    37    15    17    2
    38    16    47    1
    39    16    48    1
    40    16    49    1
    41    17    18    1
    42    17    50    1
    43    18    19    2
    44    18    51    1
    45    19    20    1
    46    19    52    1
    47    20    21    2
    48    20    22    1
    49    21    23    1
    50    21    53    1
    51    22    54    1
    52    22    55    1
    53    22    56    1
    54    24    25   ar
    55    24    26   ar
    56    25    27   ar
    57    25    58    1
    58    26    28   ar
    59    26    59    1
    60    27    29   ar
    61    27    60    1
    62    28    29   ar
    63    28    61    1
