@<TRIPOS>MOLECULE
IMPHY009081
 33 35 0 0 0
SMALL
GASTEIGER

@<TRIPOS>ATOM
      1 O           4.8936   -2.0894    0.0000 O.3     1  UNL1       -0.4826
      2 O           2.3100   -1.2846    0.0000 O.3     1  UNL1       -0.3854
      3 O           4.5830    0.4706    0.0000 O.3     1  UNL1       -0.3832
      4 O           6.6898    0.7569    0.0000 O.2     1  UNL1       -0.4217
      5 O           7.5840    2.2846    0.0000 O.2     1  UNL1       -0.2452
      6 C           4.3100   -1.2846    0.0000 C.3     1  UNL1        0.1581
      7 C           3.3100   -1.2846    0.0000 C.3     1  UNL1        0.0999
      8 C           4.8936   -0.4799    0.0000 C.3     1  UNL1        0.1264
      9 C           5.8398   -0.7846    0.0000 C.ar    1  UNL1        0.0690
     10 C           5.8398   -1.7846    0.0000 C.ar    1  UNL1        0.1305
     11 C           3.3100   -2.2846    0.0000 C.3     1  UNL1       -0.0327
     12 C           3.3100   -0.2846    0.0000 C.3     1  UNL1       -0.0327
     13 C           6.7058   -0.2846    0.0000 C.ar    1  UNL1        0.1483
     14 C           6.7058   -2.2846    0.0000 C.ar    1  UNL1       -0.0188
     15 C           7.5719   -0.7846    0.0000 C.ar    1  UNL1        0.0182
     16 C           7.5719   -1.7846    0.0000 C.ar    1  UNL1       -0.0476
     17 C           8.4819   -0.2778    0.0000 C.ar    1  UNL1       -0.0443
     18 C           7.5878    1.2846    0.0000 C.ar    1  UNL1        0.3372
     19 C           8.4899    0.7638    0.0000 C.ar    1  UNL1        0.0236
     20 H           3.9238   -2.0418    0.0000 H       1  UNL1        0.0792
     21 H           4.2811   -0.3837    0.0000 H       1  UNL1        0.0684
     22 H           3.9300   -0.2846    0.0000 H       1  UNL1        0.0258
     23 H           3.3100    0.3354    0.0000 H       1  UNL1        0.0258
     24 H           2.6900   -2.2846    0.0000 H       1  UNL1        0.0258
     25 H           3.3100   -2.9046    0.0000 H       1  UNL1        0.0258
     26 H           3.9300   -2.2846    0.0000 H       1  UNL1        0.0258
     27 H           2.6900   -0.2846    0.0000 H       1  UNL1        0.0258
     28 H           6.7058   -2.9046    0.0000 H       1  UNL1        0.0654
     29 H           2.0000   -1.8216    0.0000 H       1  UNL1        0.2103
     30 H           4.9970    0.9321    0.0000 H       1  UNL1        0.2104
     31 H           8.1088   -2.0946    0.0000 H       1  UNL1        0.0626
     32 H           9.0152   -0.5940    0.0000 H       1  UNL1        0.0627
     33 H           9.0280    1.0718    0.0000 H       1  UNL1        0.0689
@<TRIPOS>BOND
     1     1     6    1
     2     1    10    1
     3     2     7    1
     4     2    29    1
     5     8     3    1
     6     3    30    1
     7     4    13   ar
     8     4    18   ar
     9     5    18    2
    10     6     7    1
    11     6     8    1
    12     6    20    1
    13     7    11    1
    14     7    12    1
    15     8     9    1
    16     8    21    1
    17     9    10   ar
    18     9    13   ar
    19    10    14   ar
    20    11    24    1
    21    11    25    1
    22    11    26    1
    23    12    22    1
    24    12    23    1
    25    12    27    1
    26    13    15   ar
    27    14    16   ar
    28    14    28    1
    29    15    16   ar
    30    15    17   ar
    31    16    31    1
    32    17    19   ar
    33    17    32    1
    34    18    19   ar
    35    19    33    1
