@<TRIPOS>MOLECULE
IMPHY009636
 30 32 0 0 0
SMALL
GASTEIGER

@<TRIPOS>ATOM
      1 O           3.7702    1.5000    0.0000 O.2     1  UNL1       -0.4215
      2 O           7.2622   -0.5346    0.0000 O.3     1  UNL1       -0.5053
      3 O           6.3961   -2.0346    0.0000 O.3     1  UNL1       -0.4644
      4 O           4.6641   -2.0346    0.0000 O.2     1  UNL1       -0.2448
      5 O           2.0000    1.4895    0.0000 O.2     1  UNL1       -0.2452
      6 C           5.5301    1.4654    0.0000 C.ar    1  UNL1        0.0286
      7 C           6.3961    0.9654    0.0000 C.ar    1  UNL1        0.0279
      8 C           4.6641   -0.0346    0.0000 C.ar    1  UNL1        0.0357
      9 C           4.6641    0.9654    0.0000 C.ar    1  UNL1        0.1477
     10 C           5.5301   -0.5346    0.0000 C.ar    1  UNL1        0.1115
     11 C           6.3961   -0.0346    0.0000 C.ar    1  UNL1        0.1393
     12 C           5.5141    2.5069    0.0000 C.ar    1  UNL1       -0.0504
     13 C           7.3062    1.4722    0.0000 C.ar    1  UNL1       -0.0504
     14 C           3.7702   -0.5693    0.0000 C.ar    1  UNL1       -0.0434
     15 C           6.4121    3.0346    0.0000 C.ar    1  UNL1       -0.0610
     16 C           7.3142    2.5138    0.0000 C.ar    1  UNL1       -0.0611
     17 C           5.5301   -1.5346    0.0000 C.2     1  UNL1        0.3432
     18 C           2.8641   -0.0554    0.0000 C.ar    1  UNL1        0.0236
     19 C           2.8641    0.9862    0.0000 C.ar    1  UNL1        0.3372
     20 C           6.3961   -3.0346    0.0000 C.3     1  UNL1        0.0820
     21 H           4.9736    2.8106    0.0000 H       1  UNL1        0.0625
     22 H           7.8395    1.1560    0.0000 H       1  UNL1        0.0625
     23 H           3.7773   -1.1892    0.0000 H       1  UNL1        0.0627
     24 H           6.4097    3.6546    0.0000 H       1  UNL1        0.0618
     25 H           7.8523    2.8217    0.0000 H       1  UNL1        0.0618
     26 H           2.3284   -0.3675    0.0000 H       1  UNL1        0.0689
     27 H           7.7991   -0.2246    0.0000 H       1  UNL1        0.2922
     28 H           5.7762   -3.0346    0.0000 H       1  UNL1        0.0661
     29 H           6.3961   -3.6546    0.0000 H       1  UNL1        0.0661
     30 H           7.0162   -3.0346    0.0000 H       1  UNL1        0.0661
@<TRIPOS>BOND
     1     1     9   ar
     2     1    19   ar
     3     2    11    1
     4     2    27    1
     5     3    17    1
     6     3    20    1
     7     4    17    2
     8     5    19    2
     9     6     7   ar
    10     6     9   ar
    11     6    12   ar
    12     7    11   ar
    13     7    13   ar
    14     8     9   ar
    15     8    10   ar
    16     8    14   ar
    17    10    11   ar
    18    10    17    1
    19    12    15   ar
    20    12    21    1
    21    13    16   ar
    22    13    22    1
    23    14    18   ar
    24    14    23    1
    25    15    16   ar
    26    15    24    1
    27    16    25    1
    28    18    19   ar
    29    18    26    1
    30    20    28    1
    31    20    29    1
    32    20    30    1
