@<TRIPOS>MOLECULE
IMPHY014414
 101 104 0 0 0
SMALL
GASTEIGER

@<TRIPOS>ATOM
      1 CL          9.7363   -1.0957    0.0000 Cl      1  UNL1       -0.0778
      2 O           5.4204    0.4168    0.0000 O.3     1  UNL1       -0.3608
      3 O           5.3187   -1.0862    0.0000 O.3     1  UNL1       -0.4566
      4 O           4.1371    3.1583    0.0000 O.3     1  UNL1       -0.4465
      5 O           5.8692    5.1583    0.0000 O.3     1  UNL1       -0.3686
      6 O           7.1578    5.5646    0.0000 O.3     1  UNL1       -0.3712
      7 O           8.0448   -2.3388    0.0000 O.2     1  UNL1       -0.2753
      8 O           3.2711    4.6583    0.0000 O.2     1  UNL1       -0.2264
      9 O           6.2493   -2.5470    0.0000 O.2     1  UNL1       -0.2487
     10 O           2.8321   -3.6971    0.0000 O.2     1  UNL1       -0.2753
     11 O          10.9673    1.7922    0.0000 O.3     1  UNL1       -0.3709
     12 O          10.9907   -0.2213    0.0000 O.3     1  UNL1       -0.4936
     13 N           5.0032    4.6583    0.0000 N.am    1  UNL1       -0.2504
     14 N           8.3692   -0.7078    0.0000 N.am    1  UNL1       -0.2841
     15 N           4.5625   -3.6216    0.0000 N.am    1  UNL1       -0.2911
     16 C           6.4209    0.4171    0.0000 C.3     1  UNL1        0.1306
     17 C           5.9209    1.2831    0.0000 C.3     1  UNL1        0.0977
     18 C           5.0032    1.6583    0.0000 C.3     1  UNL1        0.0226
     19 C           6.1621   -0.5488    0.0000 C.3     1  UNL1        0.1423
     20 C           5.0032    2.6583    0.0000 C.3     1  UNL1        0.1139
     21 C           7.4123    0.5476    0.0000 C.3     1  UNL1       -0.0298
     22 C           4.0591    1.3286    0.0000 C.3     1  UNL1       -0.0566
     23 C           5.8692    3.1583    0.0000 C.3     1  UNL1        0.0335
     24 C           6.6621   -1.4149    0.0000 C.3     1  UNL1        0.0642
     25 C           5.8692    4.1583    0.0000 C.3     1  UNL1        0.1684
     26 C           6.7352    4.6583    0.0000 C.3     1  UNL1        0.1223
     27 C           7.6621   -1.4149    0.0000 C.2     1  UNL1        0.2209
     28 C           4.1371    4.1583    0.0000 C.2     1  UNL1        0.4027
     29 C           5.3623   -2.0852    0.0000 C.2     1  UNL1        0.3279
     30 C           4.5189   -2.6225    0.0000 C.3     1  UNL1        0.1198
     31 C           7.6012    4.1583    0.0000 C.2     1  UNL1       -0.0513
     32 C           3.6319   -2.1608    0.0000 C.3     1  UNL1       -0.0360
     33 C           8.3692    0.2922    0.0000 C.ar    1  UNL1        0.0558
     34 C           8.6012    4.1583    0.0000 C.2     1  UNL1       -0.0631
     35 C           8.1540    5.6517    0.0000 C.3     1  UNL1        0.0374
     36 C           3.7191   -4.1588    0.0000 C.2     1  UNL1        0.2186
     37 C           5.4495   -4.0833    0.0000 C.3     1  UNL1        0.0040
     38 C           9.2352    0.7922    0.0000 C.ar    1  UNL1       -0.0329
     39 C           9.1012    3.2922    0.0000 C.2     1  UNL1       -0.0602
     40 C           9.2430   -0.2258    0.0000 C.ar    1  UNL1        0.1036
     41 C           9.2352    1.7922    0.0000 C.ar    1  UNL1       -0.0095
     42 C           3.7628   -5.1579    0.0000 C.3     1  UNL1        0.0301
     43 C          10.1012    2.2922    0.0000 C.3     1  UNL1        0.1046
     44 C          10.1012    3.2922    0.0000 C.2     1  UNL1       -0.0399
     45 C          10.1247    0.2787    0.0000 C.ar    1  UNL1        0.1405
     46 C          10.1208    1.2945    0.0000 C.ar    1  UNL1       -0.0124
     47 C           2.9194   -5.6952    0.0000 C.3     1  UNL1       -0.0544
     48 C           4.6498   -5.6196    0.0000 C.3     1  UNL1       -0.0544
     49 C          10.8083    3.9993    0.0000 C.3     1  UNL1       -0.0407
     50 C          11.8333    2.2922    0.0000 C.3     1  UNL1        0.0377
     51 C          11.8567    0.2787    0.0000 C.3     1  UNL1        0.0789
     52 H           6.7252    1.5581    0.0000 H       1  UNL1        0.0630
     53 H           4.7835    1.0785    0.0000 H       1  UNL1        0.0360
     54 H           5.5474   -0.4679    0.0000 H       1  UNL1        0.0769
     55 H           4.2670    2.2333    0.0000 H       1  UNL1        0.0739
     56 H           7.3314    1.1623    0.0000 H       1  UNL1        0.0259
     57 H           8.0270    0.6285    0.0000 H       1  UNL1        0.0259
     58 H           7.4933   -0.0671    0.0000 H       1  UNL1        0.0259
     59 H           4.2635    0.7432    0.0000 H       1  UNL1        0.0234
     60 H           3.4737    1.1242    0.0000 H       1  UNL1        0.0234
     61 H           3.8547    1.9139    0.0000 H       1  UNL1        0.0234
     62 H           6.4798    3.2659    0.0000 H       1  UNL1        0.0346
     63 H           6.0812    2.5756    0.0000 H       1  UNL1        0.0346
     64 H           6.7697   -2.0255    0.0000 H       1  UNL1        0.0396
     65 H           6.0795   -1.6269    0.0000 H       1  UNL1        0.0396
     66 H           6.5747    5.2571    0.0000 H       1  UNL1        0.0686
     67 H           4.6932    5.1952    0.0000 H       1  UNL1        0.1549
     68 H           5.5592    5.6952    0.0000 H       1  UNL1        0.2121
     69 H           5.0689   -2.9088    0.0000 H       1  UNL1        0.0613
     70 H           7.4408    3.5594    0.0000 H       1  UNL1        0.0599
     71 H           8.7467   -1.1996    0.0000 H       1  UNL1        0.1548
     72 H           3.3456   -2.7107    0.0000 H       1  UNL1        0.0253
     73 H           3.0820   -1.8745    0.0000 H       1  UNL1        0.0253
     74 H           3.9182   -1.6108    0.0000 H       1  UNL1        0.0253
     75 H           8.9112    4.6952    0.0000 H       1  UNL1        0.0615
     76 H           8.1000    6.2694    0.0000 H       1  UNL1        0.0524
     77 H           8.7717    5.7058    0.0000 H       1  UNL1        0.0524
     78 H           8.2081    5.0341    0.0000 H       1  UNL1        0.0524
     79 H           5.7358   -3.5334    0.0000 H       1  UNL1        0.0429
     80 H           5.9995   -4.3696    0.0000 H       1  UNL1        0.0429
     81 H           5.1633   -4.6332    0.0000 H       1  UNL1        0.0429
     82 H           9.7722    0.4822    0.0000 H       1  UNL1        0.0640
     83 H           8.7912    2.7553    0.0000 H       1  UNL1        0.0618
     84 H           3.7898   -5.7773    0.0000 H       1  UNL1        0.0389
     85 H          10.6382    2.6022    0.0000 H       1  UNL1        0.0694
     86 H          10.6553    1.6086    0.0000 H       1  UNL1        0.0658
     87 H           3.2525   -6.2181    0.0000 H       1  UNL1        0.0237
     88 H           2.3965   -6.0283    0.0000 H       1  UNL1        0.0237
     89 H           2.5862   -5.1723    0.0000 H       1  UNL1        0.0237
     90 H           4.9361   -5.0697    0.0000 H       1  UNL1        0.0237
     91 H           5.1997   -5.9059    0.0000 H       1  UNL1        0.0237
     92 H           4.3635   -6.1696    0.0000 H       1  UNL1        0.0237
     93 H          10.3699    4.4377    0.0000 H       1  UNL1        0.0275
     94 H          11.2467    4.4377    0.0000 H       1  UNL1        0.0275
     95 H          11.2467    3.5609    0.0000 H       1  UNL1        0.0275
     96 H          11.5233    2.8292    0.0000 H       1  UNL1        0.0524
     97 H          12.3702    2.6022    0.0000 H       1  UNL1        0.0524
     98 H          12.1433    1.7553    0.0000 H       1  UNL1        0.0524
     99 H          11.5467    0.8156    0.0000 H       1  UNL1        0.0660
    100 H          12.3937    0.5887    0.0000 H       1  UNL1        0.0660
    101 H          12.1667   -0.2582    0.0000 H       1  UNL1        0.0660
@<TRIPOS>BOND
     1     1    40    1
     2     2    16    1
     3     2    17    1
     4    19     3    1
     5     3    29    1
     6     4    20    1
     7     4    28    1
     8    25     5    1
     9     5    68    1
    10    26     6    1
    11     6    35    1
    12     7    27    2
    13     8    28    2
    14     9    29    2
    15    10    36    2
    16    11    43    1
    17    11    50    1
    18    12    45    1
    19    12    51    1
    20    13    25    1
    21    13    28   am
    22    13    67    1
    23    14    27   am
    24    14    33    1
    25    14    71    1
    26    30    15    1
    27    15    36   am
    28    15    37    1
    29    16    17    1
    30    16    19    1
    31    16    21    1
    32    17    18    1
    33    17    52    1
    34    18    20    1
    35    18    22    1
    36    18    53    1
    37    19    24    1
    38    19    54    1
    39    20    23    1
    40    20    55    1
    41    21    56    1
    42    21    57    1
    43    21    58    1
    44    22    59    1
    45    22    60    1
    46    22    61    1
    47    23    25    1
    48    23    62    1
    49    23    63    1
    50    24    27    1
    51    24    64    1
    52    24    65    1
    53    25    26    1
    54    26    31    1
    55    26    66    1
    56    29    30    1
    57    30    32    1
    58    30    69    1
    59    31    34    2
    60    31    70    1
    61    32    72    1
    62    32    73    1
    63    32    74    1
    64    33    38   ar
    65    33    40   ar
    66    34    39    1
    67    34    75    1
    68    35    76    1
    69    35    77    1
    70    35    78    1
    71    36    42    1
    72    37    79    1
    73    37    80    1
    74    37    81    1
    75    38    41   ar
    76    38    82    1
    77    39    44    2
    78    39    83    1
    79    40    45   ar
    80    41    43    1
    81    41    46   ar
    82    42    47    1
    83    42    48    1
    84    42    84    1
    85    43    44    1
    86    43    85    1
    87    44    49    1
    88    45    46   ar
    89    46    86    1
    90    47    87    1
    91    47    88    1
    92    47    89    1
    93    48    90    1
    94    48    91    1
    95    48    92    1
    96    49    93    1
    97    49    94    1
    98    49    95    1
    99    50    96    1
   100    50    97    1
   101    50    98    1
   102    51    99    1
   103    51   100    1
   104    51   101    1
