@<TRIPOS>MOLECULE
IMPHY006686
 59 62 0 0 0
SMALL
GASTEIGER

@<TRIPOS>ATOM
      1 O           8.1174   -0.7371    0.0000 O.3     1  UNL1       -0.4458
      2 O           6.8671   -1.1393    0.0000 O.3     1  UNL1       -0.3094
      3 O           5.9670    0.3850    0.0000 O.2     1  UNL1       -0.4700
      4 O           5.1350   -1.1393    0.0000 O.3     1  UNL1       -0.3404
      5 O           6.8671   -3.1393    0.0000 O.3     1  UNL1       -0.3841
      6 O           5.1350   -4.1393    0.0000 O.3     1  UNL1       -0.3864
      7 O           3.4030   -3.1393    0.0000 O.3     1  UNL1       -0.3865
      8 O           8.3758   -2.5003    0.0000 O.2     1  UNL1       -0.2452
      9 O           6.0599    3.4495    0.0000 O.3     1  UNL1       -0.4646
     10 O          11.3708   -1.4559    0.0000 O.3     1  UNL1       -0.3872
     11 O           7.7915    3.4095    0.0000 O.2     1  UNL1       -0.2452
     12 O           2.5369   -1.6393    0.0000 O.3     1  UNL1       -0.3924
     13 C           7.7671    0.3850    0.0000 C.3     1  UNL1        0.0793
     14 C           8.7145    0.0650    0.0000 C.3     1  UNL1        0.1603
     15 C           7.7787    1.3849    0.0000 C.3     1  UNL1        0.0248
     16 C           6.8671   -0.1393    0.0000 C.3     1  UNL1        0.2114
     17 C           9.3116    0.8672    0.0000 C.2     1  UNL1       -0.0398
     18 C           8.7333    1.6830    0.0000 C.2     1  UNL1       -0.0755
     19 C           9.6620   -0.2550    0.0000 C.2     1  UNL1       -0.0241
     20 C           6.8910    1.9299    0.0000 C.2     1  UNL1        0.0781
     21 C           6.0010   -1.6393    0.0000 C.3     1  UNL1        0.1918
     22 C           6.0010   -2.6393    0.0000 C.3     1  UNL1        0.1342
     23 C           9.6504   -1.2549    0.0000 C.2     1  UNL1        0.0646
     24 C           5.1350   -3.1393    0.0000 C.3     1  UNL1        0.1141
     25 C           5.9790    1.4266    0.0000 C.2     1  UNL1        0.0984
     26 C           4.2690   -2.6393    0.0000 C.3     1  UNL1        0.1119
     27 C           4.2690   -1.6393    0.0000 C.3     1  UNL1        0.1130
     28 C           8.6958   -1.5529    0.0000 C.2     1  UNL1        0.3386
     29 C          10.4526   -1.8520    0.0000 C.3     1  UNL1        0.0839
     30 C           6.9141    2.9296    0.0000 C.2     1  UNL1        0.3384
     31 C           3.4030   -1.1393    0.0000 C.3     1  UNL1        0.0730
     32 C          10.3365   -2.8452    0.0000 C.3     1  UNL1       -0.0345
     33 C           6.0830    4.4493    0.0000 C.3     1  UNL1        0.0820
     34 H           7.8527   -0.4607    0.0000 H       1  UNL1        0.0416
     35 H           7.8838    2.2284    0.0000 H       1  UNL1        0.0401
     36 H           7.4046   -0.4482    0.0000 H       1  UNL1        0.1061
     37 H           9.9316    0.8600    0.0000 H       1  UNL1        0.0612
     38 H           8.9316    2.2704    0.0000 H       1  UNL1        0.0577
     39 H          10.1677    0.1036    0.0000 H       1  UNL1        0.0620
     40 H           6.0010   -1.0193    0.0000 H       1  UNL1        0.0939
     41 H           6.0010   -3.2593    0.0000 H       1  UNL1        0.0671
     42 H           4.5981   -3.4493    0.0000 H       1  UNL1        0.0648
     43 H           5.4470    1.7448    0.0000 H       1  UNL1        0.1029
     44 H           3.7320   -2.3293    0.0000 H       1  UNL1        0.0647
     45 H           4.2690   -1.0193    0.0000 H       1  UNL1        0.0647
     46 H          10.9499   -2.2222    0.0000 H       1  UNL1        0.0643
     47 H           3.8015   -0.6643    0.0000 H       1  UNL1        0.0584
     48 H           3.0044   -0.6643    0.0000 H       1  UNL1        0.0584
     49 H           6.8671   -3.7593    0.0000 H       1  UNL1        0.2101
     50 H           4.5981   -4.4493    0.0000 H       1  UNL1        0.2100
     51 H           9.7207   -2.7733    0.0000 H       1  UNL1        0.0258
     52 H          10.2646   -3.4611    0.0000 H       1  UNL1        0.0258
     53 H          10.9524   -2.9172    0.0000 H       1  UNL1        0.0258
     54 H           3.4030   -3.7593    0.0000 H       1  UNL1        0.2100
     55 H          11.8681   -1.8261    0.0000 H       1  UNL1        0.2102
     56 H           2.0000   -1.3293    0.0000 H       1  UNL1        0.2095
     57 H           6.7028    4.4349    0.0000 H       1  UNL1        0.0661
     58 H           6.0973    5.0691    0.0000 H       1  UNL1        0.0661
     59 H           5.4632    4.4636    0.0000 H       1  UNL1        0.0661
@<TRIPOS>BOND
     1    14     1    1
     2     1    28    1
     3    16     2    1
     4    21     2    1
     5     3    16    1
     6     3    25    1
     7     4    21    1
     8     4    27    1
     9    22     5    1
    10     5    49    1
    11    24     6    1
    12     6    50    1
    13    26     7    1
    14     7    54    1
    15     8    28    2
    16     9    30    1
    17     9    33    1
    18    29    10    1
    19    10    55    1
    20    11    30    2
    21    12    31    1
    22    12    56    1
    23    13    14    1
    24    13    15    1
    25    13    16    1
    26    13    34    1
    27    14    17    1
    28    14    19    1
    29    15    18    1
    30    15    20    1
    31    15    35    1
    32    16    36    1
    33    17    18    2
    34    17    37    1
    35    18    38    1
    36    19    23    2
    37    19    39    1
    38    20    25    2
    39    20    30    1
    40    21    22    1
    41    21    40    1
    42    22    24    1
    43    22    41    1
    44    23    28    1
    45    23    29    1
    46    24    26    1
    47    24    42    1
    48    25    43    1
    49    26    27    1
    50    26    44    1
    51    27    31    1
    52    27    45    1
    53    29    32    1
    54    29    46    1
    55    31    47    1
    56    31    48    1
    57    32    51    1
    58    32    52    1
    59    32    53    1
    60    33    57    1
    61    33    58    1
    62    33    59    1
