@<TRIPOS>MOLECULE
IMPHY000583
 145 152 0 0 0
SMALL
GASTEIGER

@<TRIPOS>ATOM
      1 O          14.7902    6.1324    0.0000 O.3     1  UNL1       -0.3886
      2 O          16.5853    5.0588    0.0000 O.3     1  UNL1       -0.3892
      3 O          12.3382    5.4690    0.0000 O.3     1  UNL1       -0.3944
      4 O          12.9292   -3.1262    0.0000 O.3     1  UNL1       -0.4318
      5 O          12.0632   -1.6262    0.0000 O.2     1  UNL1       -0.2501
      6 O          11.1972   -3.1262    0.0000 O.3     1  UNL1       -0.3312
      7 O          12.9292   -5.1262    0.0000 O.3     1  UNL1       -0.3829
      8 O          11.1972   -6.1262    0.0000 O.3     1  UNL1       -0.3864
      9 O           9.4651   -5.1262    0.0000 O.3     1  UNL1       -0.3865
     10 O           9.4651   -2.1262    0.0000 O.3     1  UNL1       -0.3460
     11 O           8.5991   -0.6262    0.0000 O.3     1  UNL1       -0.3405
     12 O           7.7331   -3.1262    0.0000 O.3     1  UNL1       -0.3841
     13 O           6.0010   -0.1262    0.0000 O.3     1  UNL1       -0.3401
     14 O           6.0010   -2.1262    0.0000 O.3     1  UNL1       -0.3864
     15 O           6.8671    1.3738    0.0000 O.3     1  UNL1       -0.3924
     16 O           5.1350   -1.6262    0.0000 O.3     1  UNL1       -0.3431
     17 O           4.2690    0.8738    0.0000 O.3     1  UNL1       -0.3841
     18 O           2.5369   -0.1262    0.0000 O.3     1  UNL1       -0.3864
     19 O           2.5369   -2.1262    0.0000 O.3     1  UNL1       -0.3866
     20 C          13.8349    1.4429    0.0000 C.3     1  UNL1       -0.0194
     21 C          14.7047    1.9362    0.0000 C.3     1  UNL1       -0.0257
     22 C          14.7288    2.9776    0.0000 C.3     1  UNL1       -0.0225
     23 C          13.8272    0.4429    0.0000 C.3     1  UNL1       -0.0051
     24 C          13.8349    3.5122    0.0000 C.3     1  UNL1       -0.0253
     25 C          12.9288    1.9567    0.0000 C.3     1  UNL1       -0.0463
     26 C          14.6893   -0.0637    0.0000 C.2     1  UNL1       -0.0626
     27 C          12.9288    2.9984    0.0000 C.3     1  UNL1       -0.0485
     28 C          13.8349    4.5972    0.0000 C.3     1  UNL1        0.0227
     29 C          14.6973   -1.1053    0.0000 C.3     1  UNL1       -0.0008
     30 C          15.5669    1.4295    0.0000 C.3     1  UNL1       -0.0306
     31 C          15.6847    3.4908    0.0000 C.3     1  UNL1       -0.0184
     32 C          12.9133   -0.0569    0.0000 C.3     1  UNL1       -0.0424
     33 C          13.7953   -1.6262    0.0000 C.3     1  UNL1        0.0746
     34 C          12.8488    1.2769    0.0000 C.3     1  UNL1       -0.0585
     35 C          12.8972   -1.0984    0.0000 C.3     1  UNL1       -0.0359
     36 C          14.7787    5.1325    0.0000 C.3     1  UNL1        0.0888
     37 C          15.7098    4.5755    0.0000 C.3     1  UNL1        0.0822
     38 C          15.5592    0.4296    0.0000 C.2     1  UNL1       -0.0836
     39 C          15.5870    2.4643    0.0000 C.3     1  UNL1       -0.0589
     40 C          12.8437    0.6242    0.0000 C.3     1  UNL1       -0.0553
     41 C          15.6452   -1.6333    0.0000 C.3     1  UNL1       -0.0337
     42 C          13.7785   -2.7110    0.0000 C.3     1  UNL1       -0.0364
     43 C          15.6536   -2.7182    0.0000 C.3     1  UNL1       -0.0407
     44 C          13.3382    5.4652    0.0000 C.3     1  UNL1        0.0523
     45 C          12.8349    4.6011    0.0000 C.3     1  UNL1       -0.0547
     46 C          14.7140   -3.2607    0.0000 C.3     1  UNL1       -0.0492
     47 C          12.9292   -2.1262    0.0000 C.2     1  UNL1        0.3161
     48 C          16.5054   -1.1233    0.0000 C.3     1  UNL1       -0.0616
     49 C          16.5215   -3.2149    0.0000 C.3     1  UNL1       -0.0622
     50 C          12.0632   -3.6262    0.0000 C.3     1  UNL1        0.2337
     51 C          12.0632   -4.6262    0.0000 C.3     1  UNL1        0.1455
     52 C          11.1972   -5.1262    0.0000 C.3     1  UNL1        0.1152
     53 C          10.3312   -3.6262    0.0000 C.3     1  UNL1        0.1144
     54 C          10.3312   -4.6262    0.0000 C.3     1  UNL1        0.1120
     55 C           9.4651   -3.1262    0.0000 C.3     1  UNL1        0.0796
     56 C           8.5991   -1.6262    0.0000 C.3     1  UNL1        0.1880
     57 C           7.7331   -2.1262    0.0000 C.3     1  UNL1        0.1341
     58 C           6.8671   -1.6262    0.0000 C.3     1  UNL1        0.1144
     59 C           7.7331   -0.1262    0.0000 C.3     1  UNL1        0.1134
     60 C           6.8671   -0.6262    0.0000 C.3     1  UNL1        0.1184
     61 C           7.7331    0.8738    0.0000 C.3     1  UNL1        0.0730
     62 C           5.1350   -0.6262    0.0000 C.3     1  UNL1        0.1883
     63 C           4.2690   -0.1262    0.0000 C.3     1  UNL1        0.1341
     64 C           3.4030   -0.6262    0.0000 C.3     1  UNL1        0.1140
     65 C           4.2690   -2.1262    0.0000 C.3     1  UNL1        0.0873
     66 C           3.4030   -1.6262    0.0000 C.3     1  UNL1        0.1095
     67 C           4.2690   -3.1262    0.0000 C.3     1  UNL1       -0.0361
     68 H          15.4473    2.3498    0.0000 H       1  UNL1        0.0315
     69 H          13.1004    3.9400    0.0000 H       1  UNL1        0.0313
     70 H          12.3180    2.0628    0.0000 H       1  UNL1        0.0271
     71 H          12.7198    1.3731    0.0000 H       1  UNL1        0.0271
     72 H          12.7198    3.5821    0.0000 H       1  UNL1        0.0268
     73 H          12.3180    2.8923    0.0000 H       1  UNL1        0.0268
     74 H          15.4285   -0.6719    0.0000 H       1  UNL1        0.0359
     75 H          16.1766    1.3172    0.0000 H       1  UNL1        0.0310
     76 H          15.7834    2.0105    0.0000 H       1  UNL1        0.0310
     77 H          15.8802    2.9025    0.0000 H       1  UNL1        0.0296
     78 H          16.2979    3.5828    0.0000 H       1  UNL1        0.0296
     79 H          12.7133    0.5300    0.0000 H       1  UNL1        0.0274
     80 H          12.3009   -0.1536    0.0000 H       1  UNL1        0.0274
     81 H          12.7458    1.8883    0.0000 H       1  UNL1        0.0235
     82 H          12.2374    1.1740    0.0000 H       1  UNL1        0.0235
     83 H          12.9517    0.6655    0.0000 H       1  UNL1        0.0235
     84 H          12.2881   -0.9829    0.0000 H       1  UNL1        0.0276
     85 H          12.6792   -1.6788    0.0000 H       1  UNL1        0.0276
     86 H          14.0467    5.5645    0.0000 H       1  UNL1        0.0625
     87 H          16.4368    4.1350    0.0000 H       1  UNL1        0.0619
     88 H          16.0937    0.1154    0.0000 H       1  UNL1        0.0572
     89 H          15.2688    1.9322    0.0000 H       1  UNL1        0.0235
     90 H          16.1191    2.1460    0.0000 H       1  UNL1        0.0235
     91 H          15.9053    2.9964    0.0000 H       1  UNL1        0.0235
     92 H          12.9561    1.2339    0.0000 H       1  UNL1        0.0238
     93 H          12.2340    0.7365    0.0000 H       1  UNL1        0.0238
     94 H          12.7314    0.0144    0.0000 H       1  UNL1        0.0238
     95 H          15.6338   -0.7834    0.0000 H       1  UNL1        0.0307
     96 H          13.1694   -2.5955    0.0000 H       1  UNL1        0.0276
     97 H          13.5605   -3.2914    0.0000 H       1  UNL1        0.0276
     98 H          16.3872   -2.2890    0.0000 H       1  UNL1        0.0301
     99 H          13.9216    5.6750    0.0000 H       1  UNL1        0.0563
    100 H          13.2329    6.0762    0.0000 H       1  UNL1        0.0563
    101 H          12.8373    5.2211    0.0000 H       1  UNL1        0.0237
    102 H          12.2149    4.6035    0.0000 H       1  UNL1        0.0237
    103 H          12.8325    3.9811    0.0000 H       1  UNL1        0.0237
    104 H          14.3130   -3.7336    0.0000 H       1  UNL1        0.0268
    105 H          15.1113   -3.7367    0.0000 H       1  UNL1        0.0268
    106 H          16.8216   -1.6566    0.0000 H       1  UNL1        0.0233
    107 H          17.0387   -0.8071    0.0000 H       1  UNL1        0.0233
    108 H          16.1892   -0.5900    0.0000 H       1  UNL1        0.0233
    109 H          15.3307    6.4361    0.0000 H       1  UNL1        0.2099
    110 H          17.1162    4.7385    0.0000 H       1  UNL1        0.2099
    111 H          16.2136   -3.7530    0.0000 H       1  UNL1        0.0233
    112 H          17.0597   -3.5228    0.0000 H       1  UNL1        0.0233
    113 H          16.8295   -2.6768    0.0000 H       1  UNL1        0.0233
    114 H          12.0303    6.0071    0.0000 H       1  UNL1        0.2094
    115 H          12.7993   -4.0512    0.0000 H       1  UNL1        0.1085
    116 H          12.0632   -5.4761    0.0000 H       1  UNL1        0.0683
    117 H          10.4611   -5.5512    0.0000 H       1  UNL1        0.0648
    118 H          10.3312   -2.7762    0.0000 H       1  UNL1        0.0647
    119 H           9.5950   -4.2012    0.0000 H       1  UNL1        0.0647
    120 H          13.4662   -4.8162    0.0000 H       1  UNL1        0.2102
    121 H           8.8546   -3.0185    0.0000 H       1  UNL1        0.0587
    122 H           9.2531   -3.7088    0.0000 H       1  UNL1        0.0587
    123 H          10.6603   -6.4361    0.0000 H       1  UNL1        0.2100
    124 H           8.9282   -4.8162    0.0000 H       1  UNL1        0.2100
    125 H           8.5991   -2.4762    0.0000 H       1  UNL1        0.0937
    126 H           6.9970   -2.5511    0.0000 H       1  UNL1        0.0671
    127 H           6.1309   -1.2012    0.0000 H       1  UNL1        0.0648
    128 H           8.4692    0.2988    0.0000 H       1  UNL1        0.0647
    129 H           6.8671    0.2238    0.0000 H       1  UNL1        0.0651
    130 H           7.1962   -3.4362    0.0000 H       1  UNL1        0.2101
    131 H           8.3437    0.7662    0.0000 H       1  UNL1        0.0584
    132 H           7.9451    1.4565    0.0000 H       1  UNL1        0.0584
    133 H           6.0010   -2.7462    0.0000 H       1  UNL1        0.2100
    134 H           5.1350    0.2238    0.0000 H       1  UNL1        0.0938
    135 H           3.5329    0.2988    0.0000 H       1  UNL1        0.0671
    136 H           6.8671    1.9938    0.0000 H       1  UNL1        0.2095
    137 H           4.1391   -1.0512    0.0000 H       1  UNL1        0.0648
    138 H           5.0051   -2.5511    0.0000 H       1  UNL1        0.0621
    139 H           3.4030   -2.4762    0.0000 H       1  UNL1        0.0646
    140 H           3.6490   -3.1262    0.0000 H       1  UNL1        0.0255
    141 H           4.2690   -3.7462    0.0000 H       1  UNL1        0.0255
    142 H           4.8890   -3.1262    0.0000 H       1  UNL1        0.0255
    143 H           3.7320    1.1838    0.0000 H       1  UNL1        0.2101
    144 H           2.0000   -0.4362    0.0000 H       1  UNL1        0.2100
    145 H           2.5369   -2.7462    0.0000 H       1  UNL1        0.2100
@<TRIPOS>BOND
     1     1    36    1
     2     1   109    1
     3     2    37    1
     4     2   110    1
     5     3    44    1
     6     3   114    1
     7     4    47    1
     8     4    50    1
     9     5    47    2
    10     6    50    1
    11     6    53    1
    12     7    51    1
    13     7   120    1
    14     8    52    1
    15     8   123    1
    16     9    54    1
    17     9   124    1
    18    10    55    1
    19    10    56    1
    20    11    56    1
    21    11    59    1
    22    12    57    1
    23    12   130    1
    24    13    60    1
    25    13    62    1
    26    14    58    1
    27    14   133    1
    28    15    61    1
    29    15   136    1
    30    16    62    1
    31    16    65    1
    32    17    63    1
    33    17   143    1
    34    18    64    1
    35    18   144    1
    36    19    66    1
    37    19   145    1
    38    20    21    1
    39    20    23    1
    40    20    25    1
    41    20    34    1
    42    21    22    1
    43    21    30    1
    44    21    68    1
    45    22    24    1
    46    22    31    1
    47    22    39    1
    48    23    26    1
    49    23    32    1
    50    23    40    1
    51    24    27    1
    52    24    28    1
    53    24    69    1
    54    25    27    1
    55    25    70    1
    56    25    71    1
    57    26    29    1
    58    26    38    2
    59    27    72    1
    60    27    73    1
    61    28    36    1
    62    28    44    1
    63    28    45    1
    64    29    33    1
    65    29    41    1
    66    29    74    1
    67    30    38    1
    68    30    75    1
    69    30    76    1
    70    31    37    1
    71    31    77    1
    72    31    78    1
    73    32    35    1
    74    32    79    1
    75    32    80    1
    76    33    35    1
    77    33    42    1
    78    33    47    1
    79    34    81    1
    80    34    82    1
    81    34    83    1
    82    35    84    1
    83    35    85    1
    84    36    37    1
    85    36    86    1
    86    37    87    1
    87    38    88    1
    88    39    89    1
    89    39    90    1
    90    39    91    1
    91    40    92    1
    92    40    93    1
    93    40    94    1
    94    41    43    1
    95    41    48    1
    96    41    95    1
    97    42    46    1
    98    42    96    1
    99    42    97    1
   100    43    46    1
   101    43    49    1
   102    43    98    1
   103    44    99    1
   104    44   100    1
   105    45   101    1
   106    45   102    1
   107    45   103    1
   108    46   104    1
   109    46   105    1
   110    48   106    1
   111    48   107    1
   112    48   108    1
   113    49   111    1
   114    49   112    1
   115    49   113    1
   116    50    51    1
   117    50   115    1
   118    51    52    1
   119    51   116    1
   120    52    54    1
   121    52   117    1
   122    53    54    1
   123    53    55    1
   124    53   118    1
   125    54   119    1
   126    55   121    1
   127    55   122    1
   128    56    57    1
   129    56   125    1
   130    57    58    1
   131    57   126    1
   132    58    60    1
   133    58   127    1
   134    59    60    1
   135    59    61    1
   136    59   128    1
   137    60   129    1
   138    61   131    1
   139    61   132    1
   140    62    63    1
   141    62   134    1
   142    63    64    1
   143    63   135    1
   144    64    66    1
   145    64   137    1
   146    65    66    1
   147    65    67    1
   148    65   138    1
   149    66   139    1
   150    67   140    1
   151    67   141    1
   152    67   142    1
