@<TRIPOS>MOLECULE
IMPHY009939
 30 30 0 0 0
SMALL
GASTEIGER

@<TRIPOS>ATOM
      1 O           7.1962   -1.0000    0.0000 O.3     1  UNL1       -0.4613
      2 O           8.9282   -1.0000    0.0000 O.2     1  UNL1       -0.2508
      3 C           6.3301   -0.5000    0.0000 C.3     1  UNL1        0.1031
      4 C           5.4641   -1.0000    0.0000 C.3     1  UNL1       -0.0157
      5 C           6.3301    0.5000    0.0000 C.3     1  UNL1       -0.0152
      6 C           4.5981   -0.5000    0.0000 C.3     1  UNL1       -0.0497
      7 C           7.1962    1.0000    0.0000 C.3     1  UNL1       -0.0396
      8 C           8.0622    0.5000    0.0000 C.3     1  UNL1        0.0451
      9 C           3.7320   -1.0000    0.0000 C.3     1  UNL1       -0.0532
     10 C           8.0622   -0.5000    0.0000 C.2     1  UNL1        0.3073
     11 C           2.8660   -0.5000    0.0000 C.3     1  UNL1       -0.0559
     12 C           2.0000   -1.0000    0.0000 C.3     1  UNL1       -0.0653
     13 H           6.3301   -1.1200    0.0000 H       1  UNL1        0.0734
     14 H           5.0656   -1.4750    0.0000 H       1  UNL1        0.0301
     15 H           5.8626   -1.4750    0.0000 H       1  UNL1        0.0301
     16 H           6.1181    1.0826    0.0000 H       1  UNL1        0.0301
     17 H           5.7196    0.3923    0.0000 H       1  UNL1        0.0301
     18 H           4.9966   -0.0251    0.0000 H       1  UNL1        0.0266
     19 H           4.1996   -0.0251    0.0000 H       1  UNL1        0.0266
     20 H           7.5947    1.4750    0.0000 H       1  UNL1        0.0272
     21 H           6.7976    1.4750    0.0000 H       1  UNL1        0.0272
     22 H           8.6728    0.3923    0.0000 H       1  UNL1        0.0377
     23 H           8.2742    1.0826    0.0000 H       1  UNL1        0.0377
     24 H           3.3335   -1.4750    0.0000 H       1  UNL1        0.0265
     25 H           4.1306   -1.4750    0.0000 H       1  UNL1        0.0265
     26 H           3.2646   -0.0251    0.0000 H       1  UNL1        0.0263
     27 H           2.4675   -0.0251    0.0000 H       1  UNL1        0.0263
     28 H           1.6900   -0.4631    0.0000 H       1  UNL1        0.0230
     29 H           1.4631   -1.3100    0.0000 H       1  UNL1        0.0230
     30 H           2.3100   -1.5369    0.0000 H       1  UNL1        0.0230
@<TRIPOS>BOND
     1     1     3    1
     2     1    10    1
     3     2    10    2
     4     3     4    1
     5     3     5    1
     6     3    13    1
     7     4     6    1
     8     4    14    1
     9     4    15    1
    10     5     7    1
    11     5    16    1
    12     5    17    1
    13     6     9    1
    14     6    18    1
    15     6    19    1
    16     7     8    1
    17     7    20    1
    18     7    21    1
    19     8    10    1
    20     8    22    1
    21     8    23    1
    22     9    11    1
    23     9    24    1
    24     9    25    1
    25    11    12    1
    26    11    26    1
    27    11    27    1
    28    12    28    1
    29    12    29    1
    30    12    30    1
