@<TRIPOS>MOLECULE
IMPHY006486
 80 79 0 0 0
SMALL
GASTEIGER

@<TRIPOS>ATOM
      1 C           8.9282    0.2500    0.0000 C.3     1  UNL1       -0.0286
      2 C          14.9904   -0.2500    0.0000 C.3     1  UNL1       -0.0286
      3 C          11.5263   -0.2500    0.0000 C.3     1  UNL1       -0.0311
      4 C          12.3923    0.2500    0.0000 C.3     1  UNL1       -0.0311
      5 C           8.0622   -0.2500    0.0000 C.3     1  UNL1       -0.0308
      6 C          15.8564    0.2500    0.0000 C.3     1  UNL1       -0.0308
      7 C           9.7942   -0.2500    0.0000 C.2     1  UNL1       -0.0762
      8 C          14.1244    0.2500    0.0000 C.2     1  UNL1       -0.0762
      9 C          10.6603    0.2500    0.0000 C.2     1  UNL1       -0.0847
     10 C          13.2583   -0.2500    0.0000 C.2     1  UNL1       -0.0847
     11 C           6.3301   -0.2500    0.0000 C.2     1  UNL1       -0.0762
     12 C          17.5885    0.2500    0.0000 C.2     1  UNL1       -0.0762
     13 C           5.4641    0.2500    0.0000 C.3     1  UNL1       -0.0286
     14 C          18.4545   -0.2500    0.0000 C.3     1  UNL1       -0.0286
     15 C           7.1962    0.2500    0.0000 C.2     1  UNL1       -0.0847
     16 C          16.7224   -0.2500    0.0000 C.2     1  UNL1       -0.0847
     17 C           4.5981   -0.2500    0.0000 C.3     1  UNL1       -0.0308
     18 C          19.3205    0.2500    0.0000 C.3     1  UNL1       -0.0308
     19 C           9.7942   -1.2500    0.0000 C.3     1  UNL1       -0.0438
     20 C          14.1244    1.2500    0.0000 C.3     1  UNL1       -0.0438
     21 C           6.3301   -1.2500    0.0000 C.3     1  UNL1       -0.0438
     22 C          17.5885    1.2500    0.0000 C.3     1  UNL1       -0.0438
     23 C           3.7320    0.2500    0.0000 C.2     1  UNL1       -0.0850
     24 C          20.1865   -0.2500    0.0000 C.2     1  UNL1       -0.0850
     25 C           2.8660   -0.2500    0.0000 C.2     1  UNL1       -0.0796
     26 C          21.0526    0.2500    0.0000 C.2     1  UNL1       -0.0796
     27 C           2.0000    0.2500    0.0000 C.3     1  UNL1       -0.0440
     28 C           2.8660   -1.2500    0.0000 C.3     1  UNL1       -0.0440
     29 C          21.9186   -0.2500    0.0000 C.3     1  UNL1       -0.0440
     30 C          21.0526    1.2500    0.0000 C.3     1  UNL1       -0.0440
     31 H           9.3267    0.7249    0.0000 H       1  UNL1        0.0313
     32 H           8.5297    0.7249    0.0000 H       1  UNL1        0.0313
     33 H          14.5919   -0.7249    0.0000 H       1  UNL1        0.0313
     34 H          15.3889   -0.7249    0.0000 H       1  UNL1        0.0313
     35 H          11.1278   -0.7249    0.0000 H       1  UNL1        0.0310
     36 H          11.9248   -0.7249    0.0000 H       1  UNL1        0.0310
     37 H          12.7908    0.7249    0.0000 H       1  UNL1        0.0310
     38 H          11.9938    0.7249    0.0000 H       1  UNL1        0.0310
     39 H           7.6636   -0.7249    0.0000 H       1  UNL1        0.0310
     40 H           8.4607   -0.7249    0.0000 H       1  UNL1        0.0310
     41 H          16.2549    0.7249    0.0000 H       1  UNL1        0.0310
     42 H          15.4579    0.7249    0.0000 H       1  UNL1        0.0310
     43 H          10.6603    0.8700    0.0000 H       1  UNL1        0.0572
     44 H          13.2583   -0.8700    0.0000 H       1  UNL1        0.0572
     45 H           5.8626    0.7249    0.0000 H       1  UNL1        0.0313
     46 H           5.0656    0.7249    0.0000 H       1  UNL1        0.0313
     47 H          18.0560   -0.7249    0.0000 H       1  UNL1        0.0313
     48 H          18.8530   -0.7249    0.0000 H       1  UNL1        0.0313
     49 H           7.1962    0.8700    0.0000 H       1  UNL1        0.0572
     50 H          16.7224   -0.8700    0.0000 H       1  UNL1        0.0572
     51 H           4.1996   -0.7249    0.0000 H       1  UNL1        0.0310
     52 H           4.9966   -0.7249    0.0000 H       1  UNL1        0.0310
     53 H          19.7190    0.7249    0.0000 H       1  UNL1        0.0310
     54 H          18.9220    0.7249    0.0000 H       1  UNL1        0.0310
     55 H           9.1742   -1.2500    0.0000 H       1  UNL1        0.0274
     56 H           9.7942   -1.8700    0.0000 H       1  UNL1        0.0274
     57 H          10.4142   -1.2500    0.0000 H       1  UNL1        0.0274
     58 H          14.7444    1.2500    0.0000 H       1  UNL1        0.0274
     59 H          14.1244    1.8700    0.0000 H       1  UNL1        0.0274
     60 H          13.5044    1.2500    0.0000 H       1  UNL1        0.0274
     61 H           5.7101   -1.2500    0.0000 H       1  UNL1        0.0274
     62 H           6.3301   -1.8700    0.0000 H       1  UNL1        0.0274
     63 H           6.9501   -1.2500    0.0000 H       1  UNL1        0.0274
     64 H          18.2085    1.2500    0.0000 H       1  UNL1        0.0274
     65 H          17.5885    1.8700    0.0000 H       1  UNL1        0.0274
     66 H          16.9685    1.2500    0.0000 H       1  UNL1        0.0274
     67 H           3.7320    0.8700    0.0000 H       1  UNL1        0.0572
     68 H          20.1865   -0.8700    0.0000 H       1  UNL1        0.0572
     69 H           2.3100    0.7869    0.0000 H       1  UNL1        0.0274
     70 H           1.4631    0.5600    0.0000 H       1  UNL1        0.0274
     71 H           1.6900   -0.2869    0.0000 H       1  UNL1        0.0274
     72 H           2.2460   -1.2500    0.0000 H       1  UNL1        0.0274
     73 H           2.8660   -1.8700    0.0000 H       1  UNL1        0.0274
     74 H           3.4860   -1.2500    0.0000 H       1  UNL1        0.0274
     75 H          21.6086   -0.7869    0.0000 H       1  UNL1        0.0274
     76 H          22.4555   -0.5600    0.0000 H       1  UNL1        0.0274
     77 H          22.2286    0.2869    0.0000 H       1  UNL1        0.0274
     78 H          21.6726    1.2500    0.0000 H       1  UNL1        0.0274
     79 H          21.0526    1.8700    0.0000 H       1  UNL1        0.0274
     80 H          20.4326    1.2500    0.0000 H       1  UNL1        0.0274
@<TRIPOS>BOND
     1     1     5    1
     2     1     7    1
     3     1    31    1
     4     1    32    1
     5     2     6    1
     6     2     8    1
     7     2    33    1
     8     2    34    1
     9     3     4    1
    10     3     9    1
    11     3    35    1
    12     3    36    1
    13     4    10    1
    14     4    37    1
    15     4    38    1
    16     5    15    1
    17     5    39    1
    18     5    40    1
    19     6    16    1
    20     6    41    1
    21     6    42    1
    22     7     9    2
    23     7    19    1
    24     8    10    2
    25     8    20    1
    26     9    43    1
    27    10    44    1
    28    11    13    1
    29    11    15    2
    30    11    21    1
    31    12    14    1
    32    12    16    2
    33    12    22    1
    34    13    17    1
    35    13    45    1
    36    13    46    1
    37    14    18    1
    38    14    47    1
    39    14    48    1
    40    15    49    1
    41    16    50    1
    42    17    23    1
    43    17    51    1
    44    17    52    1
    45    18    24    1
    46    18    53    1
    47    18    54    1
    48    19    55    1
    49    19    56    1
    50    19    57    1
    51    20    58    1
    52    20    59    1
    53    20    60    1
    54    21    61    1
    55    21    62    1
    56    21    63    1
    57    22    64    1
    58    22    65    1
    59    22    66    1
    60    23    25    2
    61    23    67    1
    62    24    26    2
    63    24    68    1
    64    25    27    1
    65    25    28    1
    66    26    29    1
    67    26    30    1
    68    27    69    1
    69    27    70    1
    70    27    71    1
    71    28    72    1
    72    28    73    1
    73    28    74    1
    74    29    75    1
    75    29    76    1
    76    29    77    1
    77    30    78    1
    78    30    79    1
    79    30    80    1
