@<TRIPOS>MOLECULE
IMPHY014669
 44 46 0 0 0
SMALL
GASTEIGER

@<TRIPOS>ATOM
      1 O           6.0682   -2.4827    0.0000 O.3     1  UNL1       -0.4910
      2 O           6.9343    1.0173    0.0000 O.3     1  UNL1       -0.4910
      3 O           8.6663    2.0173    0.0000 O.3     1  UNL1       -0.4884
      4 O          10.3984    1.0173    0.0000 O.3     1  UNL1       -0.4884
      5 O          10.3984   -0.9827    0.0000 O.3     1  UNL1       -0.5032
      6 O           2.5381   -2.5068    0.0000 O.3     1  UNL1       -0.5066
      7 C           6.9343   -0.9827    0.0000 C.3     1  UNL1        0.0261
      8 C           6.0682   -0.4827    0.0000 C.3     1  UNL1       -0.0142
      9 C           6.9343   -1.9827    0.0000 C.3     1  UNL1        0.0968
     10 C           7.8003   -0.4827    0.0000 C.ar    1  UNL1        0.0082
     11 C           5.2022   -0.9827    0.0000 C.ar    1  UNL1       -0.0048
     12 C           5.2022   -1.9827    0.0000 C.ar    1  UNL1        0.1272
     13 C           7.8003    0.5173    0.0000 C.ar    1  UNL1        0.1689
     14 C           8.6663   -0.9827    0.0000 C.ar    1  UNL1       -0.0092
     15 C           4.3083   -0.4480    0.0000 C.ar    1  UNL1       -0.0516
     16 C           8.6663    1.0173    0.0000 C.ar    1  UNL1        0.2075
     17 C           4.3083   -2.5173    0.0000 C.ar    1  UNL1        0.0218
     18 C           9.5323   -0.4827    0.0000 C.ar    1  UNL1        0.1627
     19 C           9.5323    0.5173    0.0000 C.ar    1  UNL1        0.2070
     20 C           3.4022   -0.9619    0.0000 C.ar    1  UNL1       -0.0197
     21 C           3.4022   -2.0035    0.0000 C.ar    1  UNL1        0.1203
     22 C           6.9343    2.0173    0.0000 C.3     1  UNL1        0.0790
     23 C           9.5323    2.5173    0.0000 C.3     1  UNL1        0.0791
     24 C          11.2644    0.5173    0.0000 C.3     1  UNL1        0.0791
     25 H           6.9343   -0.3627    0.0000 H       1  UNL1        0.0386
     26 H           6.4668   -0.0077    0.0000 H       1  UNL1        0.0321
     27 H           5.6697   -0.0077    0.0000 H       1  UNL1        0.0321
     28 H           7.1463   -2.5653    0.0000 H       1  UNL1        0.0703
     29 H           7.5449   -1.8750    0.0000 H       1  UNL1        0.0703
     30 H           8.6663   -1.6027    0.0000 H       1  UNL1        0.0659
     31 H           4.3154    0.1720    0.0000 H       1  UNL1        0.0623
     32 H           4.3154   -3.1373    0.0000 H       1  UNL1        0.0691
     33 H           2.8665   -0.6498    0.0000 H       1  UNL1        0.0654
     34 H           7.5543    2.0173    0.0000 H       1  UNL1        0.0660
     35 H           6.9343    2.6373    0.0000 H       1  UNL1        0.0660
     36 H           6.3143    2.0173    0.0000 H       1  UNL1        0.0660
     37 H          10.3984   -1.6027    0.0000 H       1  UNL1        0.2923
     38 H           2.0000   -2.1989    0.0000 H       1  UNL1        0.2921
     39 H           9.8424    1.9804    0.0000 H       1  UNL1        0.0660
     40 H          10.0693    2.8273    0.0000 H       1  UNL1        0.0660
     41 H           9.2224    3.0543    0.0000 H       1  UNL1        0.0660
     42 H          10.9544   -0.0196    0.0000 H       1  UNL1        0.0660
     43 H          11.8013    0.2073    0.0000 H       1  UNL1        0.0660
     44 H          11.5744    1.0543    0.0000 H       1  UNL1        0.0660
@<TRIPOS>BOND
     1     1     9    1
     2     1    12    1
     3     2    13    1
     4     2    22    1
     5     3    16    1
     6     3    23    1
     7     4    19    1
     8     4    24    1
     9     5    18    1
    10     5    37    1
    11     6    21    1
    12     6    38    1
    13     7     8    1
    14     7     9    1
    15     7    10    1
    16     7    25    1
    17     8    11    1
    18     8    26    1
    19     8    27    1
    20     9    28    1
    21     9    29    1
    22    10    13   ar
    23    10    14   ar
    24    11    12   ar
    25    11    15   ar
    26    12    17   ar
    27    13    16   ar
    28    14    18   ar
    29    14    30    1
    30    15    20   ar
    31    15    31    1
    32    16    19   ar
    33    17    21   ar
    34    17    32    1
    35    18    19   ar
    36    20    21   ar
    37    20    33    1
    38    22    34    1
    39    22    35    1
    40    22    36    1
    41    23    39    1
    42    23    40    1
    43    23    41    1
    44    24    42    1
    45    24    43    1
    46    24    44    1
