@<TRIPOS>MOLECULE
IMPHY008663
 41 40 0 0 0
SMALL
GASTEIGER

@<TRIPOS>ATOM
      1 P           6.3301   -0.4050    0.0000 P.3     1  UNL1        0.2128
      2 O           5.4641   -0.9050    0.0000 O.3     1  UNL1       -0.3221
      3 O           7.1962    0.0950    0.0000 O.3     1  UNL1       -0.3247
      4 O           8.9282    1.0950    0.0000 O.3     1  UNL1       -0.3861
      5 O          10.6603    0.0950    0.0000 O.3     1  UNL1       -0.4621
      6 O           5.8301    0.4610    0.0000 O.co2   1  UNL1       -0.4373
      7 O           6.8301   -1.2710    0.0000 O.2     1  UNL1       -0.5172
      8 O          11.5263   -1.4050    0.0000 O.2     1  UNL1       -0.2512
      9 N           2.8660   -0.4050    0.0000 N.4     1  UNL1        0.2385
     10 C           3.7320   -0.9050    0.0000 C.3     1  UNL1       -0.0064
     11 C           2.0000    0.0950    0.0000 C.3     1  UNL1       -0.0417
     12 C           2.3660   -1.2710    0.0000 C.3     1  UNL1       -0.0417
     13 C           3.3660    0.4610    0.0000 C.3     1  UNL1       -0.0417
     14 C           4.5981   -0.4050    0.0000 C.3     1  UNL1        0.0947
     15 C           8.9282    0.0950    0.0000 C.3     1  UNL1        0.1128
     16 C           8.0622   -0.4050    0.0000 C.3     1  UNL1        0.0840
     17 C           9.7942   -0.4050    0.0000 C.3     1  UNL1        0.1204
     18 C          11.5263   -0.4050    0.0000 C.2     1  UNL1        0.3040
     19 C          12.3923    0.0950    0.0000 C.3     1  UNL1        0.0332
     20 H           3.3335   -1.3800    0.0000 H       1  UNL1        0.0838
     21 H           4.1306   -1.3800    0.0000 H       1  UNL1        0.0838
     22 H           2.3100    0.6319    0.0000 H       1  UNL1        0.0778
     23 H           1.4631    0.4050    0.0000 H       1  UNL1        0.0778
     24 H           1.6900   -0.4419    0.0000 H       1  UNL1        0.0778
     25 H           1.8291   -0.9610    0.0000 H       1  UNL1        0.0778
     26 H           2.0560   -1.8080    0.0000 H       1  UNL1        0.0778
     27 H           2.9030   -1.5810    0.0000 H       1  UNL1        0.0778
     28 H           3.9030    0.1510    0.0000 H       1  UNL1        0.0778
     29 H           3.6760    0.9980    0.0000 H       1  UNL1        0.0778
     30 H           2.8291    0.7710    0.0000 H       1  UNL1        0.0778
     31 H           4.9966    0.0699    0.0000 H       1  UNL1        0.0618
     32 H           4.1996    0.0699    0.0000 H       1  UNL1        0.0618
     33 H           9.4651    0.4050    0.0000 H       1  UNL1        0.0650
     34 H           7.6636   -0.8799    0.0000 H       1  UNL1        0.0591
     35 H           8.4607   -0.8799    0.0000 H       1  UNL1        0.0591
     36 H           9.3957   -0.8799    0.0000 H       1  UNL1        0.0724
     37 H          10.1928   -0.8799    0.0000 H       1  UNL1        0.0724
     38 H           9.4651    1.4050    0.0000 H       1  UNL1        0.2100
     39 H          12.7023   -0.4419    0.0000 H       1  UNL1        0.0342
     40 H          12.9292    0.4050    0.0000 H       1  UNL1        0.0342
     41 H          12.0823    0.6319    0.0000 H       1  UNL1        0.0342
@<TRIPOS>UNITY_ATOM_ATTR
6 1
charge -1
9 1
charge 1
@<TRIPOS>BOND
     1     1     2    1
     2     1     3    1
     3     1     6    1
     4     1     7    2
     5     2    14    1
     6     3    16    1
     7    15     4    1
     8     4    38    1
     9     5    17    1
    10     5    18    1
    11     8    18    2
    12     9    10    1
    13     9    11    1
    14     9    12    1
    15     9    13    1
    16    10    14    1
    17    10    20    1
    18    10    21    1
    19    11    22    1
    20    11    23    1
    21    11    24    1
    22    12    25    1
    23    12    26    1
    24    12    27    1
    25    13    28    1
    26    13    29    1
    27    13    30    1
    28    14    31    1
    29    14    32    1
    30    15    16    1
    31    15    17    1
    32    15    33    1
    33    16    34    1
    34    16    35    1
    35    17    36    1
    36    17    37    1
    37    18    19    1
    38    19    39    1
    39    19    40    1
    40    19    41    1
