@<TRIPOS>MOLECULE
IMPHY013104
 84 87 0 0 0
SMALL
GASTEIGER

@<TRIPOS>ATOM
      1 O           3.7585   -1.4081    0.0000 O.3     1  UNL1       -0.3673
      2 O           5.3728   -3.5864    0.0000 O.3     1  UNL1       -0.3866
      3 O           9.6867   -0.1019    0.0000 O.3     1  UNL1       -0.4806
      4 O           9.7067    1.6300    0.0000 O.2     1  UNL1       -0.2510
      5 C           4.0649    1.1578    0.0000 C.3     1  UNL1       -0.0232
      6 C           4.9309    1.6578    0.0000 C.3     1  UNL1       -0.0231
      7 C           4.0649    0.1578    0.0000 C.3     1  UNL1       -0.0297
      8 C           5.7969    1.1578    0.0000 C.3     1  UNL1       -0.0292
      9 C           3.1187   -0.1469    0.0000 C.3     1  UNL1       -0.0088
     10 C           6.7069    1.6647    0.0000 C.3     1  UNL1       -0.0217
     11 C           3.1187    1.4626    0.0000 C.3     1  UNL1       -0.0465
     12 C           4.9309   -0.3422    0.0000 C.3     1  UNL1       -0.0491
     13 C           5.7969    0.1578    0.0000 C.3     1  UNL1       -0.0489
     14 C           4.9149    2.6994    0.0000 C.3     1  UNL1       -0.0463
     15 C           2.5350    0.6578    0.0000 C.3     1  UNL1       -0.0468
     16 C           6.7150    2.7063    0.0000 C.3     1  UNL1       -0.0147
     17 C           2.8080   -1.0974    0.0000 C.3     1  UNL1        0.0704
     18 C           3.7229    2.0975    0.0000 C.3     1  UNL1       -0.0588
     19 C           5.8129    3.2271    0.0000 C.3     1  UNL1       -0.0455
     20 C           4.2881    2.4239    0.0000 C.3     1  UNL1       -0.0588
     21 C           7.7069    1.6531    0.0000 C.3     1  UNL1       -0.0367
     22 C           7.1969    0.7929    0.0000 C.3     1  UNL1       -0.0587
     23 C           2.2188   -1.9054    0.0000 C.3     1  UNL1       -0.0213
     24 C           2.0000   -0.5082    0.0000 C.3     1  UNL1       -0.0355
     25 C           7.5829    3.2029    0.0000 C.2     1  UNL1       -0.0761
     26 C           2.8052   -2.7154    0.0000 C.3     1  UNL1       -0.0213
     27 C           3.7568   -2.4081    0.0000 C.3     1  UNL1        0.0876
     28 C           8.1968    0.7814    0.0000 C.3     1  UNL1        0.0453
     29 C           4.5648   -2.9973    0.0000 C.3     1  UNL1        0.0865
     30 C           7.5868    4.2029    0.0000 C.3     1  UNL1       -0.0438
     31 C           8.4470    2.6996    0.0000 C.2     1  UNL1       -0.0994
     32 C           9.1968    0.7698    0.0000 C.2     1  UNL1        0.3047
     33 C           3.9756   -3.8053    0.0000 C.3     1  UNL1       -0.0339
     34 C           5.1540   -2.1893    0.0000 C.3     1  UNL1       -0.0339
     35 H           3.9749   -0.6874    0.0000 H       1  UNL1        0.0310
     36 H           6.5298    0.7272    0.0000 H       1  UNL1        0.0312
     37 H           2.2790   -0.2788    0.0000 H       1  UNL1        0.0331
     38 H           3.3697    2.0295    0.0000 H       1  UNL1        0.0271
     39 H           2.5813    1.7718    0.0000 H       1  UNL1        0.0271
     40 H           4.5324   -0.8171    0.0000 H       1  UNL1        0.0268
     41 H           5.3294   -0.8171    0.0000 H       1  UNL1        0.0268
     42 H           6.0090   -0.4248    0.0000 H       1  UNL1        0.0268
     43 H           6.4075    0.2655    0.0000 H       1  UNL1        0.0268
     44 H           4.6968    3.2797    0.0000 H       1  UNL1        0.0271
     45 H           4.3057    2.5838    0.0000 H       1  UNL1        0.0271
     46 H           2.0742    1.0726    0.0000 H       1  UNL1        0.0269
     47 H           2.0742    0.2431    0.0000 H       1  UNL1        0.0269
     48 H           6.7162    3.3263    0.0000 H       1  UNL1        0.0351
     49 H           4.3055    2.3096    0.0000 H       1  UNL1        0.0235
     50 H           3.5108    2.6801    0.0000 H       1  UNL1        0.0235
     51 H           3.1402    1.8855    0.0000 H       1  UNL1        0.0235
     52 H           6.2102    3.7031    0.0000 H       1  UNL1        0.0271
     53 H           5.4119    3.7000    0.0000 H       1  UNL1        0.0271
     54 H           4.7631    2.8224    0.0000 H       1  UNL1        0.0235
     55 H           3.8896    2.8988    0.0000 H       1  UNL1        0.0235
     56 H           3.8132    2.0254    0.0000 H       1  UNL1        0.0235
     57 H           8.2919    1.8584    0.0000 H       1  UNL1        0.0276
     58 H           7.6063    2.2649    0.0000 H       1  UNL1        0.0276
     59 H           6.6564    0.4892    0.0000 H       1  UNL1        0.0235
     60 H           7.5007    0.2524    0.0000 H       1  UNL1        0.0235
     61 H           7.7374    1.0967    0.0000 H       1  UNL1        0.0235
     62 H           1.7588   -1.4898    0.0000 H       1  UNL1        0.0294
     63 H           1.7574   -2.3195    0.0000 H       1  UNL1        0.0294
     64 H           2.3653   -0.0073    0.0000 H       1  UNL1        0.0257
     65 H           1.4990   -0.1429    0.0000 H       1  UNL1        0.0257
     66 H           1.6347   -1.0092    0.0000 H       1  UNL1        0.0257
     67 H           2.2677   -3.0245    0.0000 H       1  UNL1        0.0292
     68 H           3.0564   -3.2823    0.0000 H       1  UNL1        0.0292
     69 H           4.5148   -2.0235    0.0000 H       1  UNL1        0.0625
     70 H           7.6118    0.5761    0.0000 H       1  UNL1        0.0378
     71 H           8.2974    0.1696    0.0000 H       1  UNL1        0.0378
     72 H           8.2068    4.2005    0.0000 H       1  UNL1        0.0274
     73 H           7.5892    4.8229    0.0000 H       1  UNL1        0.0274
     74 H           6.9668    4.2053    0.0000 H       1  UNL1        0.0274
     75 H           8.4446    2.0796    0.0000 H       1  UNL1        0.0534
     76 H           8.9851    3.0075    0.0000 H       1  UNL1        0.0534
     77 H           3.4746   -3.4400    0.0000 H       1  UNL1        0.0258
     78 H           3.6103   -4.3062    0.0000 H       1  UNL1        0.0258
     79 H           4.4766   -4.1706    0.0000 H       1  UNL1        0.0258
     80 H           5.6549   -2.5546    0.0000 H       1  UNL1        0.0258
     81 H           5.5193   -1.6883    0.0000 H       1  UNL1        0.0258
     82 H           4.6530   -1.8240    0.0000 H       1  UNL1        0.0258
     83 H           5.3069   -4.2029    0.0000 H       1  UNL1        0.2102
     84 H          10.3067   -0.1091    0.0000 H       1  UNL1        0.2951
@<TRIPOS>BOND
     1     1    17    1
     2     1    27    1
     3     2    29    1
     4     2    83    1
     5     3    32    1
     6     3    84    1
     7     4    32    2
     8     5     6    1
     9     5     7    1
    10     5    11    1
    11     5    18    1
    12     6     8    1
    13     6    14    1
    14     6    20    1
    15     7     9    1
    16     7    12    1
    17     7    35    1
    18     8    10    1
    19     8    13    1
    20     8    36    1
    21     9    15    1
    22     9    17    1
    23     9    37    1
    24    10    16    1
    25    10    21    1
    26    10    22    1
    27    11    15    1
    28    11    38    1
    29    11    39    1
    30    12    13    1
    31    12    40    1
    32    12    41    1
    33    13    42    1
    34    13    43    1
    35    14    19    1
    36    14    44    1
    37    14    45    1
    38    15    46    1
    39    15    47    1
    40    16    19    1
    41    16    25    1
    42    16    48    1
    43    17    23    1
    44    17    24    1
    45    18    49    1
    46    18    50    1
    47    18    51    1
    48    19    52    1
    49    19    53    1
    50    20    54    1
    51    20    55    1
    52    20    56    1
    53    21    28    1
    54    21    57    1
    55    21    58    1
    56    22    59    1
    57    22    60    1
    58    22    61    1
    59    23    26    1
    60    23    62    1
    61    23    63    1
    62    24    64    1
    63    24    65    1
    64    24    66    1
    65    25    30    1
    66    25    31    2
    67    26    27    1
    68    26    67    1
    69    26    68    1
    70    27    29    1
    71    27    69    1
    72    28    32    1
    73    28    70    1
    74    28    71    1
    75    29    33    1
    76    29    34    1
    77    30    72    1
    78    30    73    1
    79    30    74    1
    80    31    75    1
    81    31    76    1
    82    33    77    1
    83    33    78    1
    84    33    79    1
    85    34    80    1
    86    34    81    1
    87    34    82    1
