@<TRIPOS>MOLECULE
IMPHY007637
 59 61 0 0 0
SMALL
GASTEIGER

@<TRIPOS>ATOM
      1 O           7.7331   -1.3450    0.0000 O.3     1  UNL1       -0.3313
      2 O           6.0010   -0.3450    0.0000 O.3     1  UNL1       -0.3461
      3 O           4.2690   -0.3450    0.0000 O.3     1  UNL1       -0.3461
      4 O           6.0010   -3.3450    0.0000 O.3     1  UNL1       -0.3865
      5 O           7.7331   -4.3450    0.0000 O.3     1  UNL1       -0.3864
      6 O           9.4651   -1.3450    0.0000 O.3     1  UNL1       -0.4608
      7 O           9.4651   -3.3450    0.0000 O.3     1  UNL1       -0.3829
      8 O           6.0010    1.6550    0.0000 O.3     1  UNL1       -0.3841
      9 O           4.2690    2.6550    0.0000 O.3     1  UNL1       -0.3864
     10 O           2.5369    1.6550    0.0000 O.3     1  UNL1       -0.3869
     11 O          11.1972    4.6550    0.0000 O.co2   1  UNL1       -0.5818
     12 O           9.4651    4.6550    0.0000 O.2     1  UNL1        0.0344
     13 N          10.3312    4.1550    0.0000 N.pl3   1  UNL1        0.0382
     14 C           6.8671   -1.8450    0.0000 C.3     1  UNL1        0.1144
     15 C           6.8671   -2.8450    0.0000 C.3     1  UNL1        0.1120
     16 C           7.7331   -3.3450    0.0000 C.3     1  UNL1        0.1152
     17 C           8.5991   -2.8450    0.0000 C.3     1  UNL1        0.1454
     18 C           8.5991   -1.8450    0.0000 C.3     1  UNL1        0.2308
     19 C           6.0010   -1.3450    0.0000 C.3     1  UNL1        0.0796
     20 C           5.1350    0.1550    0.0000 C.3     1  UNL1        0.1876
     21 C           5.1350    1.1550    0.0000 C.3     1  UNL1        0.1341
     22 C           4.2690    1.6550    0.0000 C.3     1  UNL1        0.1137
     23 C           3.4030    1.1550    0.0000 C.3     1  UNL1        0.1069
     24 C           3.4030    0.1550    0.0000 C.3     1  UNL1        0.0792
     25 C           9.4651   -0.3450    0.0000 C.ar    1  UNL1        0.1240
     26 C          10.3312    0.1550    0.0000 C.ar    1  UNL1       -0.0196
     27 C           8.5991    0.1550    0.0000 C.ar    1  UNL1       -0.0196
     28 C           9.4651    1.6550    0.0000 C.ar    1  UNL1       -0.0410
     29 C          10.3312    1.1550    0.0000 C.ar    1  UNL1       -0.0549
     30 C           8.5991    1.1550    0.0000 C.ar    1  UNL1       -0.0549
     31 C           9.4651    2.6550    0.0000 C.3     1  UNL1        0.0375
     32 C          10.3312    3.1550    0.0000 C.3     1  UNL1        0.2116
     33 H           6.8671   -1.2250    0.0000 H       1  UNL1        0.0647
     34 H           6.8671   -3.4650    0.0000 H       1  UNL1        0.0647
     35 H           8.2700   -3.6550    0.0000 H       1  UNL1        0.0648
     36 H           9.1360   -2.5350    0.0000 H       1  UNL1        0.0683
     37 H           8.5991   -1.2250    0.0000 H       1  UNL1        0.1084
     38 H           5.3905   -1.2373    0.0000 H       1  UNL1        0.0587
     39 H           5.7890   -1.9276    0.0000 H       1  UNL1        0.0587
     40 H           5.6720    0.4650    0.0000 H       1  UNL1        0.0937
     41 H           5.1350    1.7750    0.0000 H       1  UNL1        0.0671
     42 H           3.7320    1.9650    0.0000 H       1  UNL1        0.0647
     43 H           2.8660    0.8450    0.0000 H       1  UNL1        0.0643
     44 H           2.7924    0.2627    0.0000 H       1  UNL1        0.0587
     45 H           3.1909   -0.4276    0.0000 H       1  UNL1        0.0587
     46 H           5.4641   -3.0350    0.0000 H       1  UNL1        0.2100
     47 H           7.1962   -4.6550    0.0000 H       1  UNL1        0.2100
     48 H          10.0021   -3.0350    0.0000 H       1  UNL1        0.2102
     49 H           6.0010    2.2750    0.0000 H       1  UNL1        0.2101
     50 H           3.7320    2.9650    0.0000 H       1  UNL1        0.2100
     51 H           2.0000    1.3450    0.0000 H       1  UNL1        0.2100
     52 H          10.8681   -0.1550    0.0000 H       1  UNL1        0.0654
     53 H           8.0622   -0.1550    0.0000 H       1  UNL1        0.0654
     54 H          10.8681    1.4650    0.0000 H       1  UNL1        0.0621
     55 H           8.0622    1.4650    0.0000 H       1  UNL1        0.0621
     56 H           9.2531    3.2376    0.0000 H       1  UNL1        0.0377
     57 H           8.8546    2.5473    0.0000 H       1  UNL1        0.0377
     58 H          10.5432    2.5724    0.0000 H       1  UNL1        0.1091
     59 H          10.9417    3.2627    0.0000 H       1  UNL1        0.1091
@<TRIPOS>UNITY_ATOM_ATTR
11 1
charge -1
13 1
charge 1
@<TRIPOS>BOND
     1     1    14    1
     2     1    18    1
     3     2    19    1
     4    20     2    1
     5     3    20    1
     6     3    24    1
     7    15     4    1
     8     4    46    1
     9    16     5    1
    10     5    47    1
    11    18     6    1
    12     6    25    1
    13    17     7    1
    14     7    48    1
    15    21     8    1
    16     8    49    1
    17    22     9    1
    18     9    50    1
    19    23    10    1
    20    10    51    1
    21    11    13    1
    22    12    13    2
    23    13    32    1
    24    14    15    1
    25    14    19    1
    26    14    33    1
    27    15    16    1
    28    15    34    1
    29    16    17    1
    30    16    35    1
    31    17    18    1
    32    17    36    1
    33    18    37    1
    34    19    38    1
    35    19    39    1
    36    20    21    1
    37    20    40    1
    38    21    22    1
    39    21    41    1
    40    22    23    1
    41    22    42    1
    42    23    24    1
    43    23    43    1
    44    24    44    1
    45    24    45    1
    46    25    26   ar
    47    25    27   ar
    48    26    29   ar
    49    26    52    1
    50    27    30   ar
    51    27    53    1
    52    28    29   ar
    53    28    30   ar
    54    28    31    1
    55    29    54    1
    56    30    55    1
    57    31    32    1
    58    31    56    1
    59    31    57    1
    60    32    58    1
    61    32    59    1
