@<TRIPOS>MOLECULE
IMPHY007841
 22 23 0 0 0
SMALL
GASTEIGER

@<TRIPOS>ATOM
      1 O           6.0290   -1.2420    0.0000 O.2     1  UNL1       -0.4221
      2 O           7.7991   -1.2314    0.0000 O.2     1  UNL1       -0.2452
      3 N           2.5369   -1.2073    0.0000 N.pl3   1  UNL1       -0.3579
      4 C           5.1350    0.2927    0.0000 C.ar    1  UNL1        0.0206
      5 C           6.0290    0.8274    0.0000 C.ar    1  UNL1       -0.0330
      6 C           5.1350   -0.7073    0.0000 C.ar    1  UNL1        0.1410
      7 C           4.2690    0.7927    0.0000 C.ar    1  UNL1       -0.0491
      8 C           4.2690   -1.2073    0.0000 C.ar    1  UNL1        0.0020
      9 C           3.4030   -0.7073    0.0000 C.ar    1  UNL1        0.0281
     10 C           6.9350    0.3135    0.0000 C.ar    1  UNL1        0.0265
     11 C           3.4030    0.2927    0.0000 C.ar    1  UNL1       -0.0403
     12 C           6.0174    1.8273    0.0000 C.3     1  UNL1       -0.0388
     13 C           6.9350   -0.7281    0.0000 C.ar    1  UNL1        0.3375
     14 H           4.2690    1.4127    0.0000 H       1  UNL1        0.0625
     15 H           4.2690   -1.8273    0.0000 H       1  UNL1        0.0673
     16 H           7.4708    0.6256    0.0000 H       1  UNL1        0.0692
     17 H           2.8660    0.6027    0.0000 H       1  UNL1        0.0636
     18 H           6.6374    1.8345    0.0000 H       1  UNL1        0.0278
     19 H           6.0102    2.4473    0.0000 H       1  UNL1        0.0278
     20 H           5.3974    1.8201    0.0000 H       1  UNL1        0.0278
     21 H           2.0000   -0.8973    0.0000 H       1  UNL1        0.1423
     22 H           2.5369   -1.8273    0.0000 H       1  UNL1        0.1423
@<TRIPOS>BOND
     1     1     6   ar
     2     1    13   ar
     3     2    13    2
     4     3     9    1
     5     3    21    1
     6     3    22    1
     7     4     5   ar
     8     4     6   ar
     9     4     7   ar
    10     5    10   ar
    11     5    12    1
    12     6     8   ar
    13     7    11   ar
    14     7    14    1
    15     8     9   ar
    16     8    15    1
    17     9    11   ar
    18    10    13   ar
    19    10    16    1
    20    11    17    1
    21    12    18    1
    22    12    19    1
    23    12    20    1
