@<TRIPOS>MOLECULE
IMPHY013678
 48 51 0 0 0
SMALL
GASTEIGER

@<TRIPOS>ATOM
      1 O           6.9473   -0.4324    0.0000 O.3     1  UNL1       -0.4797
      2 O           5.1350   -1.6276    0.0000 O.3     1  UNL1       -0.4914
      3 O          10.6980   -1.2307    0.0000 O.3     1  UNL1       -0.4525
      4 O          11.5027    0.1632    0.0000 O.3     1  UNL1       -0.4489
      5 O          10.5309    2.1044    0.0000 O.3     1  UNL1       -0.4913
      6 C           6.9473    1.1771    0.0000 C.3     1  UNL1        0.0262
      7 C           7.5309    0.3724    0.0000 C.3     1  UNL1        0.1322
      8 C           6.0010    0.8724    0.0000 C.ar    1  UNL1        0.0052
      9 C           6.0010   -0.1276    0.0000 C.ar    1  UNL1        0.1664
     10 C           8.5309    0.3724    0.0000 C.ar    1  UNL1        0.0004
     11 C           7.2579    2.1276    0.0000 C.3     1  UNL1       -0.0546
     12 C           5.1350    1.3724    0.0000 C.ar    1  UNL1       -0.0473
     13 C           5.1350   -0.6276    0.0000 C.ar    1  UNL1        0.1624
     14 C           9.0309   -0.4937    0.0000 C.ar    1  UNL1       -0.0092
     15 C           9.0309    1.2384    0.0000 C.ar    1  UNL1       -0.0094
     16 C           4.2690    0.8724    0.0000 C.ar    1  UNL1       -0.0214
     17 C           4.2690   -0.1276    0.0000 C.ar    1  UNL1       -0.0091
     18 C          10.0309   -0.4937    0.0000 C.ar    1  UNL1        0.1703
     19 C          10.0309    1.2384    0.0000 C.ar    1  UNL1        0.1657
     20 C          10.5309    0.3724    0.0000 C.ar    1  UNL1        0.2075
     21 C           3.4030    1.3724    0.0000 C.2     1  UNL1       -0.0587
     22 C          11.6057   -0.8256    0.0000 C.3     1  UNL1        0.2334
     23 C           4.2690   -2.1276    0.0000 C.3     1  UNL1        0.0790
     24 C           2.5369    0.8724    0.0000 C.2     1  UNL1       -0.0865
     25 C          11.5309    2.1044    0.0000 C.3     1  UNL1        0.0790
     26 C           2.5369   -0.1276    0.0000 C.3     1  UNL1       -0.0465
     27 H           6.5098    1.6165    0.0000 H       1  UNL1        0.0387
     28 H           7.8126   -0.1799    0.0000 H       1  UNL1        0.0790
     29 H           7.8472    1.9350    0.0000 H       1  UNL1        0.0237
     30 H           7.4505    2.7170    0.0000 H       1  UNL1        0.0237
     31 H           6.6686    2.3202    0.0000 H       1  UNL1        0.0237
     32 H           5.1350    1.9924    0.0000 H       1  UNL1        0.0627
     33 H           8.7209   -1.0306    0.0000 H       1  UNL1        0.0659
     34 H           8.7209    1.7753    0.0000 H       1  UNL1        0.0659
     35 H           3.7320   -0.4376    0.0000 H       1  UNL1        0.0661
     36 H           3.4030    1.9924    0.0000 H       1  UNL1        0.0620
     37 H          11.7975   -1.4151    0.0000 H       1  UNL1        0.1166
     38 H          12.2122   -0.6968    0.0000 H       1  UNL1        0.1166
     39 H           3.9590   -1.5907    0.0000 H       1  UNL1        0.0660
     40 H           3.7320   -2.4376    0.0000 H       1  UNL1        0.0660
     41 H           4.5790   -2.6646    0.0000 H       1  UNL1        0.0660
     42 H           2.0000    1.1824    0.0000 H       1  UNL1        0.0569
     43 H          11.5309    1.4844    0.0000 H       1  UNL1        0.0660
     44 H          12.1509    2.1044    0.0000 H       1  UNL1        0.0660
     45 H          11.5309    2.7244    0.0000 H       1  UNL1        0.0660
     46 H           1.9169   -0.1276    0.0000 H       1  UNL1        0.0272
     47 H           2.5369   -0.7476    0.0000 H       1  UNL1        0.0272
     48 H           3.1569   -0.1276    0.0000 H       1  UNL1        0.0272
@<TRIPOS>BOND
     1     1     7    1
     2     1     9    1
     3     2    13    1
     4     2    23    1
     5     3    18    1
     6     3    22    1
     7     4    20    1
     8     4    22    1
     9     5    19    1
    10     5    25    1
    11     6     7    1
    12     6     8    1
    13     6    11    1
    14     6    27    1
    15     7    10    1
    16     7    28    1
    17     8     9   ar
    18     8    12   ar
    19     9    13   ar
    20    10    14   ar
    21    10    15   ar
    22    11    29    1
    23    11    30    1
    24    11    31    1
    25    12    16   ar
    26    12    32    1
    27    13    17   ar
    28    14    18   ar
    29    14    33    1
    30    15    19   ar
    31    15    34    1
    32    16    17   ar
    33    16    21    1
    34    17    35    1
    35    18    20   ar
    36    19    20   ar
    37    21    24    2
    38    21    36    1
    39    22    37    1
    40    22    38    1
    41    23    39    1
    42    23    40    1
    43    23    41    1
    44    24    26    1
    45    24    42    1
    46    25    43    1
    47    25    44    1
    48    25    45    1
    49    26    46    1
    50    26    47    1
    51    26    48    1
