@<TRIPOS>MOLECULE
IMPHY000337
 104 110 0 0 0
SMALL
GASTEIGER

@<TRIPOS>ATOM
      1 O           3.8185    0.9593    0.0000 O.3     1  UNL1       -0.3815
      2 O           3.3772    1.7974    0.0000 O.3     1  UNL1       -0.3851
      3 O           4.8948    0.6285    0.0000 O.3     1  UNL1       -0.3765
      4 O           6.7174    4.3904    0.0000 O.3     1  UNL1       -0.3791
      5 O           3.0010    4.1388    0.0000 O.3     1  UNL1       -0.4608
      6 O           2.5998    4.8483    0.0000 O.3     1  UNL1       -0.3793
      7 O           7.5834    0.1552    0.0000 O.3     1  UNL1       -0.4605
      8 O           2.0040    2.7225    0.0000 O.2     1  UNL1       -0.2512
      9 O           6.7174   -1.3448    0.0000 O.2     1  UNL1       -0.2449
     10 O           8.4495   -4.3448    0.0000 O.2     1  UNL1       -0.2752
     11 N           7.9128    2.5613    0.0000 N.3     1  UNL1       -0.2955
     12 N           7.5834   -2.8448    0.0000 N.am    1  UNL1       -0.2846
     13 C           5.9661    2.9566    0.0000 C.3     1  UNL1        0.0245
     14 C           5.9661    2.0890    0.0000 C.3     1  UNL1        0.0078
     15 C           6.9681    2.8505    0.0000 C.3     1  UNL1        0.0529
     16 C           5.2878    3.4975    0.0000 C.3     1  UNL1       -0.0218
     17 C           4.4420    1.7411    0.0000 C.3     1  UNL1        0.1371
     18 C           4.4420    3.3044    0.0000 C.3     1  UNL1        0.0317
     19 C           4.0655    2.5228    0.0000 C.3     1  UNL1        0.1073
     20 C           5.2878    1.5481    0.0000 C.3     1  UNL1        0.0953
     21 C           6.7174    1.6552    0.0000 C.3     1  UNL1        0.0236
     22 C           6.7174    3.3904    0.0000 C.3     1  UNL1        0.0661
     23 C           5.3656    4.3616    0.0000 C.3     1  UNL1       -0.0405
     24 C           4.5678    4.7026    0.0000 C.3     1  UNL1        0.0231
     25 C           3.9970    4.0492    0.0000 C.3     1  UNL1        0.1140
     26 C           3.4206    2.7927    0.0000 C.3     1  UNL1        0.0060
     27 C           7.9128    1.8094    0.0000 C.3     1  UNL1        0.0084
     28 C           7.4688    2.0890    0.0000 C.3     1  UNL1       -0.0404
     29 C           3.4206    4.2772    0.0000 C.3     1  UNL1        0.0672
     30 C           7.4688    2.9566    0.0000 C.3     1  UNL1       -0.0254
     31 C           6.7174    0.6552    0.0000 C.3     1  UNL1        0.0999
     32 C           8.7167    3.1560    0.0000 C.3     1  UNL1       -0.0035
     33 C           5.4946   -0.1716    0.0000 C.3     1  UNL1        0.0369
     34 C           9.6337    2.7571    0.0000 C.3     1  UNL1       -0.0523
     35 C           7.5835    4.8904    0.0000 C.3     1  UNL1        0.0368
     36 C           2.0936    3.7185    0.0000 C.2     1  UNL1        0.3042
     37 C           2.6839    5.8448    0.0000 C.3     1  UNL1        0.0368
     38 C           7.5834   -0.8448    0.0000 C.2     1  UNL1        0.3410
     39 C           1.2759    4.2941    0.0000 C.3     1  UNL1        0.0332
     40 C           8.4495   -1.3448    0.0000 C.ar    1  UNL1        0.0801
     41 C           8.4495   -2.3448    0.0000 C.ar    1  UNL1        0.0474
     42 C           9.3155   -0.8448    0.0000 C.ar    1  UNL1       -0.0460
     43 C           9.3155   -2.8448    0.0000 C.ar    1  UNL1       -0.0397
     44 C          10.1815   -1.3448    0.0000 C.ar    1  UNL1       -0.0609
     45 C          10.1815   -2.3448    0.0000 C.ar    1  UNL1       -0.0600
     46 C           7.5834   -3.8448    0.0000 C.2     1  UNL1        0.2200
     47 C           6.7174   -4.3448    0.0000 C.3     1  UNL1        0.0328
     48 C           6.7174   -5.3448    0.0000 C.3     1  UNL1       -0.0450
     49 C           5.8514   -3.8448    0.0000 C.3     1  UNL1       -0.0541
     50 C           5.8514   -5.8448    0.0000 C.3     1  UNL1       -0.0646
     51 H           6.0296    1.2414    0.0000 H       1  UNL1        0.0340
     52 H           7.2800    3.6412    0.0000 H       1  UNL1        0.0499
     53 H           6.0694    3.8316    0.0000 H       1  UNL1        0.0312
     54 H           3.5928    3.2663    0.0000 H       1  UNL1        0.0368
     55 H           5.4882    0.9614    0.0000 H       1  UNL1        0.0629
     56 H           6.1805    3.7004    0.0000 H       1  UNL1        0.0602
     57 H           5.5483    4.9540    0.0000 H       1  UNL1        0.0273
     58 H           5.9739    4.2418    0.0000 H       1  UNL1        0.0273
     59 H           4.5886    5.5523    0.0000 H       1  UNL1        0.0362
     60 H           3.7662    4.6246    0.0000 H       1  UNL1        0.0741
     61 H           3.2587    2.1942    0.0000 H       1  UNL1        0.0319
     62 H           2.8060    2.8744    0.0000 H       1  UNL1        0.0319
     63 H           8.5322    1.8360    0.0000 H       1  UNL1        0.0433
     64 H           7.9657    1.1917    0.0000 H       1  UNL1        0.0433
     65 H           8.0794    2.1966    0.0000 H       1  UNL1        0.0273
     66 H           7.6808    1.5064    0.0000 H       1  UNL1        0.0273
     67 H           3.4988    4.8923    0.0000 H       1  UNL1        0.0601
     68 H           7.6808    3.5392    0.0000 H       1  UNL1        0.0290
     69 H           8.0794    2.8489    0.0000 H       1  UNL1        0.0290
     70 H           6.5054    0.0726    0.0000 H       1  UNL1        0.0704
     71 H           6.1068    0.7629    0.0000 H       1  UNL1        0.0704
     72 H           4.0450    0.3822    0.0000 H       1  UNL1        0.2105
     73 H           2.7827    1.6213    0.0000 H       1  UNL1        0.2103
     74 H           8.2671    3.5829    0.0000 H       1  UNL1        0.0424
     75 H           9.0590    3.6730    0.0000 H       1  UNL1        0.0424
     76 H           5.9907    0.2003    0.0000 H       1  UNL1        0.0524
     77 H           5.8665   -0.6677    0.0000 H       1  UNL1        0.0524
     78 H           4.9985   -0.5435    0.0000 H       1  UNL1        0.0524
     79 H           9.8810    3.3256    0.0000 H       1  UNL1        0.0242
     80 H          10.2022    2.5098    0.0000 H       1  UNL1        0.0242
     81 H           9.3864    2.1886    0.0000 H       1  UNL1        0.0242
     82 H           7.2735    5.4273    0.0000 H       1  UNL1        0.0524
     83 H           8.1204    5.2004    0.0000 H       1  UNL1        0.0524
     84 H           7.8935    4.3534    0.0000 H       1  UNL1        0.0524
     85 H           2.0661    5.8970    0.0000 H       1  UNL1        0.0524
     86 H           2.7361    6.4626    0.0000 H       1  UNL1        0.0524
     87 H           3.3017    5.7926    0.0000 H       1  UNL1        0.0524
     88 H           0.9190    3.7871    0.0000 H       1  UNL1        0.0342
     89 H           0.7689    4.6510    0.0000 H       1  UNL1        0.0342
     90 H           1.6328    4.8011    0.0000 H       1  UNL1        0.0342
     91 H           9.3155   -0.2248    0.0000 H       1  UNL1        0.0626
     92 H           9.3155   -3.4648    0.0000 H       1  UNL1        0.0636
     93 H          10.7185   -1.0348    0.0000 H       1  UNL1        0.0618
     94 H           7.0465   -2.5348    0.0000 H       1  UNL1        0.1548
     95 H          10.7185   -2.6548    0.0000 H       1  UNL1        0.0618
     96 H           6.1805   -4.6548    0.0000 H       1  UNL1        0.0391
     97 H           7.3280   -5.2371    0.0000 H       1  UNL1        0.0270
     98 H           6.9295   -5.9274    0.0000 H       1  UNL1        0.0270
     99 H           5.5414   -4.3817    0.0000 H       1  UNL1        0.0237
    100 H           5.3145   -3.5348    0.0000 H       1  UNL1        0.0237
    101 H           6.1614   -3.3078    0.0000 H       1  UNL1        0.0237
    102 H           6.1614   -6.3817    0.0000 H       1  UNL1        0.0230
    103 H           5.3145   -6.1548    0.0000 H       1  UNL1        0.0230
    104 H           5.5414   -5.3078    0.0000 H       1  UNL1        0.0230
@<TRIPOS>BOND
     1    17     1    1
     2     1    72    1
     3    19     2    1
     4     2    73    1
     5    20     3    1
     6     3    33    1
     7    22     4    1
     8     4    35    1
     9    25     5    1
    10     5    36    1
    11    29     6    1
    12     6    37    1
    13     7    31    1
    14     7    38    1
    15     8    36    2
    16     9    38    2
    17    10    46    2
    18    11    15    1
    19    11    27    1
    20    11    32    1
    21    12    41    1
    22    12    46   am
    23    12    94    1
    24    13    14    1
    25    13    15    1
    26    13    16    1
    27    13    22    1
    28    14    20    1
    29    14    21    1
    30    14    51    1
    31    15    17    1
    32    15    52    1
    33    16    18    1
    34    16    23    1
    35    16    53    1
    36    17    19    1
    37    17    20    1
    38    18    19    1
    39    18    25    1
    40    18    54    1
    41    19    26    1
    42    20    55    1
    43    21    27    1
    44    21    28    1
    45    21    31    1
    46    22    30    1
    47    22    56    1
    48    23    24    1
    49    23    57    1
    50    23    58    1
    51    24    25    1
    52    24    29    1
    53    24    59    1
    54    25    60    1
    55    26    29    1
    56    26    61    1
    57    26    62    1
    58    27    63    1
    59    27    64    1
    60    28    30    1
    61    28    65    1
    62    28    66    1
    63    29    67    1
    64    30    68    1
    65    30    69    1
    66    31    70    1
    67    31    71    1
    68    32    34    1
    69    32    74    1
    70    32    75    1
    71    33    76    1
    72    33    77    1
    73    33    78    1
    74    34    79    1
    75    34    80    1
    76    34    81    1
    77    35    82    1
    78    35    83    1
    79    35    84    1
    80    36    39    1
    81    37    85    1
    82    37    86    1
    83    37    87    1
    84    38    40    1
    85    39    88    1
    86    39    89    1
    87    39    90    1
    88    40    41   ar
    89    40    42   ar
    90    41    43   ar
    91    42    44   ar
    92    42    91    1
    93    43    45   ar
    94    43    92    1
    95    44    45   ar
    96    44    93    1
    97    45    95    1
    98    46    47    1
    99    47    48    1
   100    47    49    1
   101    47    96    1
   102    48    50    1
   103    48    97    1
   104    48    98    1
   105    49    99    1
   106    49   100    1
   107    49   101    1
   108    50   102    1
   109    50   103    1
   110    50   104    1
