@<TRIPOS>MOLECULE
IMPHY009406
 81 85 0 0 0
SMALL
GASTEIGER

@<TRIPOS>ATOM
      1 O           2.5357   -2.8693    0.0000 O.3     1  UNL1       -0.3912
      2 O           5.3307    0.6830    0.0000 O.2     1  UNL1       -0.2923
      3 O          11.2187    3.2426    0.0000 O.3     1  UNL1       -0.3945
      4 C           7.0628   -1.3170    0.0000 C.3     1  UNL1       -0.0127
      5 C           5.2868   -1.3238    0.0000 C.3     1  UNL1       -0.0182
      6 C           7.9288   -0.8170    0.0000 C.3     1  UNL1       -0.0043
      7 C           6.1968   -0.8170    0.0000 C.3     1  UNL1        0.0333
      8 C           5.2787   -2.3654    0.0000 C.3     1  UNL1       -0.0274
      9 C           7.0789   -2.3585    0.0000 C.3     1  UNL1       -0.0459
     10 C           7.9288    0.1830    0.0000 C.2     1  UNL1       -0.0562
     11 C           8.8228    0.7177    0.0000 C.3     1  UNL1       -0.0130
     12 C           6.1808   -2.8862    0.0000 C.3     1  UNL1       -0.0486
     13 C           9.7288    0.2038    0.0000 C.3     1  UNL1       -0.0255
     14 C           4.3433   -2.9152    0.0000 C.3     1  UNL1       -0.0056
     15 C           8.8228   -1.3516    0.0000 C.3     1  UNL1       -0.0429
     16 C           4.3599   -0.7597    0.0000 C.3     1  UNL1       -0.0443
     17 C           9.7288   -0.8378    0.0000 C.3     1  UNL1       -0.0463
     18 C           6.1968    0.1830    0.0000 C.2     1  UNL1        0.1602
     19 C           7.7056   -2.0830    0.0000 C.3     1  UNL1       -0.0581
     20 C           3.4037   -2.3727    0.0000 C.3     1  UNL1        0.0606
     21 C           5.2945   -0.3239    0.0000 C.3     1  UNL1       -0.0586
     22 C           8.7977    1.8024    0.0000 C.3     1  UNL1       -0.0385
     23 C           8.2709   -1.7566    0.0000 C.3     1  UNL1       -0.0553
     24 C           3.4120   -1.2877    0.0000 C.3     1  UNL1       -0.0258
     25 C           7.0628    0.6830    0.0000 C.2     1  UNL1       -0.0188
     26 C          10.6726    0.7391    0.0000 C.3     1  UNL1       -0.0465
     27 C           9.7288    2.3593    0.0000 C.3     1  UNL1       -0.0083
     28 C          10.6726    1.8241    0.0000 C.3     1  UNL1       -0.0450
     29 C          10.5987   -0.2895    0.0000 C.3     1  UNL1       -0.0590
     30 C           3.8467   -3.7831    0.0000 C.3     1  UNL1       -0.0572
     31 C           4.8466   -3.7792    0.0000 C.3     1  UNL1       -0.0572
     32 C          10.2188    3.2311    0.0000 C.3     1  UNL1        0.0496
     33 C           9.2188    3.2195    0.0000 C.3     1  UNL1       -0.0575
     34 H           6.9329   -0.3920    0.0000 H       1  UNL1        0.0392
     35 H           5.2820   -3.2154    0.0000 H       1  UNL1        0.0312
     36 H           7.2969   -2.9389    0.0000 H       1  UNL1        0.0271
     37 H           7.6880   -2.2430    0.0000 H       1  UNL1        0.0271
     38 H           9.5522    1.1540    0.0000 H       1  UNL1        0.0351
     39 H           5.7835   -3.3622    0.0000 H       1  UNL1        0.0268
     40 H           6.5818   -3.3591    0.0000 H       1  UNL1        0.0268
     41 H           8.4182   -1.8214    0.0000 H       1  UNL1        0.0274
     42 H           9.2164   -1.8307    0.0000 H       1  UNL1        0.0274
     43 H           4.7681   -0.2931    0.0000 H       1  UNL1        0.0272
     44 H           3.9700   -0.2777    0.0000 H       1  UNL1        0.0272
     45 H           9.9379   -1.4215    0.0000 H       1  UNL1        0.0271
     46 H          10.3397   -0.7317    0.0000 H       1  UNL1        0.0271
     47 H           7.2306   -2.4816    0.0000 H       1  UNL1        0.0236
     48 H           8.1041   -2.5580    0.0000 H       1  UNL1        0.0236
     49 H           8.1805   -1.6845    0.0000 H       1  UNL1        0.0236
     50 H           3.4025   -2.9927    0.0000 H       1  UNL1        0.0599
     51 H           5.9145   -0.3286    0.0000 H       1  UNL1        0.0235
     52 H           5.2993    0.2961    0.0000 H       1  UNL1        0.0235
     53 H           4.6745   -0.3191    0.0000 H       1  UNL1        0.0235
     54 H           8.5752    2.3811    0.0000 H       1  UNL1        0.0277
     55 H           8.1894    1.6822    0.0000 H       1  UNL1        0.0277
     56 H           7.6884   -1.9688    0.0000 H       1  UNL1        0.0238
     57 H           8.4830   -2.3392    0.0000 H       1  UNL1        0.0238
     58 H           8.8535   -1.5445    0.0000 H       1  UNL1        0.0238
     59 H           3.2075   -0.7024    0.0000 H       1  UNL1        0.0290
     60 H           2.8004   -1.3891    0.0000 H       1  UNL1        0.0290
     61 H           7.0628    1.3030    0.0000 H       1  UNL1        0.0652
     62 H          10.8817    0.1554    0.0000 H       1  UNL1        0.0271
     63 H          11.2835    0.8452    0.0000 H       1  UNL1        0.0271
     64 H          11.2835    1.7180    0.0000 H       1  UNL1        0.0271
     65 H          10.8817    2.4078    0.0000 H       1  UNL1        0.0271
     66 H          10.2928   -0.8288    0.0000 H       1  UNL1        0.0235
     67 H          11.1380   -0.5953    0.0000 H       1  UNL1        0.0235
     68 H          10.9045    0.2498    0.0000 H       1  UNL1        0.0235
     69 H           4.3109   -4.0913    0.0000 H       1  UNL1        0.0236
     70 H           5.1587   -4.3150    0.0000 H       1  UNL1        0.0236
     71 H           5.3824   -3.4672    0.0000 H       1  UNL1        0.0236
     72 H           3.3085   -3.4752    0.0000 H       1  UNL1        0.0236
     73 H           3.5387   -4.3212    0.0000 H       1  UNL1        0.0236
     74 H           4.3848   -4.0910    0.0000 H       1  UNL1        0.0236
     75 H          10.3194    3.8428    0.0000 H       1  UNL1        0.0562
     76 H           9.6338    3.4364    0.0000 H       1  UNL1        0.0562
     77 H           9.7522    3.5357    0.0000 H       1  UNL1        0.0236
     78 H           8.9027    3.7528    0.0000 H       1  UNL1        0.0236
     79 H           8.6855    2.9033    0.0000 H       1  UNL1        0.0236
     80 H           2.0000   -2.5572    0.0000 H       1  UNL1        0.2098
     81 H          11.5225    3.7831    0.0000 H       1  UNL1        0.2094
@<TRIPOS>BOND
     1    20     1    1
     2     1    80    1
     3     2    18    2
     4     3    32    1
     5     3    81    1
     6     4     6    1
     7     4     7    1
     8     4     9    1
     9     4    19    1
    10     5     7    1
    11     5     8    1
    12     5    16    1
    13     5    21    1
    14     6    10    1
    15     6    15    1
    16     6    23    1
    17     7    18    1
    18     7    34    1
    19     8    12    1
    20     8    14    1
    21     8    35    1
    22     9    12    1
    23     9    36    1
    24     9    37    1
    25    10    11    1
    26    10    25    2
    27    11    13    1
    28    11    22    1
    29    11    38    1
    30    12    39    1
    31    12    40    1
    32    13    17    1
    33    13    26    1
    34    13    29    1
    35    14    20    1
    36    14    30    1
    37    14    31    1
    38    15    17    1
    39    15    41    1
    40    15    42    1
    41    16    24    1
    42    16    43    1
    43    16    44    1
    44    17    45    1
    45    17    46    1
    46    18    25    1
    47    19    47    1
    48    19    48    1
    49    19    49    1
    50    20    24    1
    51    20    50    1
    52    21    51    1
    53    21    52    1
    54    21    53    1
    55    22    27    1
    56    22    54    1
    57    22    55    1
    58    23    56    1
    59    23    57    1
    60    23    58    1
    61    24    59    1
    62    24    60    1
    63    25    61    1
    64    26    28    1
    65    26    62    1
    66    26    63    1
    67    27    28    1
    68    27    32    1
    69    27    33    1
    70    28    64    1
    71    28    65    1
    72    29    66    1
    73    29    67    1
    74    29    68    1
    75    30    72    1
    76    30    73    1
    77    30    74    1
    78    31    69    1
    79    31    70    1
    80    31    71    1
    81    32    75    1
    82    32    76    1
    83    33    77    1
    84    33    78    1
    85    33    79    1
