@<TRIPOS>MOLECULE
IMPHY013882
 47 50 0 0 0
SMALL
GASTEIGER

@<TRIPOS>ATOM
      1 O           5.5103    1.4936    0.0000 O.3     1  UNL1       -0.4908
      2 O           7.2762    2.5314    0.0000 O.3     1  UNL1       -0.4914
      3 O           2.8680   -0.0137    0.0000 O.3     1  UNL1       -0.4951
      4 N           8.1223   -2.0348    0.0000 N.3     1  UNL1       -0.2978
      5 C           7.2641   -1.5378    0.0000 C.3     1  UNL1        0.0403
      6 C           7.2641   -0.5378    0.0000 C.ar    1  UNL1       -0.0153
      7 C           6.3981   -2.0378    0.0000 C.3     1  UNL1       -0.0073
      8 C           8.1741   -0.0310    0.0000 C.ar    1  UNL1       -0.0372
      9 C           8.9878   -1.5506    0.0000 C.3     1  UNL1        0.0032
     10 C           6.3981   -0.0378    0.0000 C.ar    1  UNL1        0.0327
     11 C           9.0134   -0.5592    0.0000 C.3     1  UNL1       -0.0144
     12 C           5.5320   -1.5378    0.0000 C.ar    1  UNL1       -0.0375
     13 C           5.5320   -0.5378    0.0000 C.ar    1  UNL1       -0.0073
     14 C           6.3820    1.0037    0.0000 C.ar    1  UNL1        0.1695
     15 C           8.1821    1.0106    0.0000 C.ar    1  UNL1       -0.0127
     16 C           8.1149   -3.0348    0.0000 C.3     1  UNL1       -0.0122
     17 C           7.2800    1.5314    0.0000 C.ar    1  UNL1        0.1624
     18 C           4.6381   -2.0725    0.0000 C.ar    1  UNL1       -0.0545
     19 C           4.6381   -0.0032    0.0000 C.ar    1  UNL1       -0.0119
     20 C           3.7320   -0.5170    0.0000 C.ar    1  UNL1        0.1207
     21 C           3.7320   -1.5587    0.0000 C.ar    1  UNL1       -0.0197
     22 C           5.4987    2.4936    0.0000 C.3     1  UNL1        0.0790
     23 C           8.1403    3.0348    0.0000 C.3     1  UNL1        0.0790
     24 C           2.0000   -0.5104    0.0000 C.3     1  UNL1        0.0788
     25 H           7.2636   -2.3878    0.0000 H       1  UNL1        0.0515
     26 H           5.9995   -2.5128    0.0000 H       1  UNL1        0.0332
     27 H           6.7966   -2.5128    0.0000 H       1  UNL1        0.0332
     28 H           9.1895   -2.1369    0.0000 H       1  UNL1        0.0430
     29 H           9.6006   -1.4562    0.0000 H       1  UNL1        0.0430
     30 H           9.6205   -0.6851    0.0000 H       1  UNL1        0.0326
     31 H           9.2452    0.0158    0.0000 H       1  UNL1        0.0326
     32 H           8.7203    1.3185    0.0000 H       1  UNL1        0.0658
     33 H           7.4949   -3.0302    0.0000 H       1  UNL1        0.0391
     34 H           8.1103   -3.6547    0.0000 H       1  UNL1        0.0391
     35 H           8.7349   -3.0393    0.0000 H       1  UNL1        0.0391
     36 H           4.6453   -2.6925    0.0000 H       1  UNL1        0.0622
     37 H           4.6453    0.6168    0.0000 H       1  UNL1        0.0660
     38 H           3.1963   -1.8707    0.0000 H       1  UNL1        0.0654
     39 H           6.1187    2.5007    0.0000 H       1  UNL1        0.0660
     40 H           5.4915    3.1135    0.0000 H       1  UNL1        0.0660
     41 H           4.8787    2.4864    0.0000 H       1  UNL1        0.0660
     42 H           8.4523    2.4990    0.0000 H       1  UNL1        0.0660
     43 H           8.6760    3.3468    0.0000 H       1  UNL1        0.0660
     44 H           7.8282    3.5705    0.0000 H       1  UNL1        0.0660
     45 H           1.6921    0.0278    0.0000 H       1  UNL1        0.0660
     46 H           1.4619   -0.8183    0.0000 H       1  UNL1        0.0660
     47 H           2.3079   -1.0485    0.0000 H       1  UNL1        0.0660
@<TRIPOS>BOND
     1     1    14    1
     2     1    22    1
     3     2    17    1
     4     2    23    1
     5     3    20    1
     6     3    24    1
     7     4     5    1
     8     4     9    1
     9     4    16    1
    10     5     6    1
    11     5     7    1
    12     5    25    1
    13     6     8   ar
    14     6    10   ar
    15     7    12    1
    16     7    26    1
    17     7    27    1
    18     8    11    1
    19     8    15   ar
    20     9    11    1
    21     9    28    1
    22     9    29    1
    23    10    13    1
    24    10    14   ar
    25    11    30    1
    26    11    31    1
    27    12    13   ar
    28    12    18   ar
    29    13    19   ar
    30    14    17   ar
    31    15    17   ar
    32    15    32    1
    33    16    33    1
    34    16    34    1
    35    16    35    1
    36    18    21   ar
    37    18    36    1
    38    19    20   ar
    39    19    37    1
    40    20    21   ar
    41    21    38    1
    42    22    39    1
    43    22    40    1
    44    22    41    1
    45    23    42    1
    46    23    43    1
    47    23    44    1
    48    24    45    1
    49    24    46    1
    50    24    47    1
