@<TRIPOS>MOLECULE
IMPHY014655
 47 48 0 0 0
SMALL
GASTEIGER

@<TRIPOS>ATOM
      1 O           8.9282    1.5000    0.0000 O.2     1  UNL1       -0.4957
      2 O           8.9282    3.5000    0.0000 O.2     1  UNL1       -0.4918
      3 O           2.8660   -1.0000    0.0000 O.3     1  UNL1       -0.4942
      4 O           3.7320    0.5000    0.0000 O.2     1  UNL1       -0.2870
      5 O           6.3301   -1.0000    0.0000 O.3     1  UNL1       -0.5058
      6 O           4.5981   -4.0000    0.0000 O.3     1  UNL1       -0.4949
      7 C           6.3301    2.0000    0.0000 C.3     1  UNL1        0.0029
      8 C           7.1962    1.5000    0.0000 C.3     1  UNL1        0.0182
      9 C           8.0622    2.0000    0.0000 C.2     1  UNL1        0.1395
     10 C           6.3301    3.0000    0.0000 C.2     1  UNL1       -0.0732
     11 C           5.4641    1.5000    0.0000 C.2     1  UNL1       -0.0731
     12 C           8.0622    3.0000    0.0000 C.2     1  UNL1        0.1570
     13 C           7.1962    3.5000    0.0000 C.2     1  UNL1       -0.0200
     14 C           5.4641    0.5000    0.0000 C.2     1  UNL1       -0.0175
     15 C           4.5981    0.0000    0.0000 C.2     1  UNL1        0.1928
     16 C           4.5981   -1.0000    0.0000 C.ar    1  UNL1        0.1047
     17 C           3.7320   -1.5000    0.0000 C.ar    1  UNL1        0.1379
     18 C           5.4641   -1.5000    0.0000 C.ar    1  UNL1        0.1346
     19 C           9.7942    2.0000    0.0000 C.3     1  UNL1        0.0785
     20 C           3.7320   -2.5000    0.0000 C.ar    1  UNL1        0.0227
     21 C           5.4641   -2.5000    0.0000 C.ar    1  UNL1        0.0225
     22 C           4.5981   -3.0000    0.0000 C.ar    1  UNL1        0.1271
     23 C           8.9282    4.5000    0.0000 C.3     1  UNL1        0.0789
     24 C           2.0000   -1.5000    0.0000 C.3     1  UNL1        0.0788
     25 C           5.4641   -4.5000    0.0000 C.3     1  UNL1        0.0788
     26 H           5.7932    2.3100    0.0000 H       1  UNL1        0.0390
     27 H           6.7976    1.0250    0.0000 H       1  UNL1        0.0353
     28 H           7.5947    1.0250    0.0000 H       1  UNL1        0.0353
     29 H           5.7932    3.3100    0.0000 H       1  UNL1        0.0579
     30 H           4.9272    1.8100    0.0000 H       1  UNL1        0.0579
     31 H           7.1962    4.1200    0.0000 H       1  UNL1        0.0652
     32 H           6.0010    0.1900    0.0000 H       1  UNL1        0.0653
     33 H           3.1951   -2.8100    0.0000 H       1  UNL1        0.0691
     34 H          10.1042    1.4631    0.0000 H       1  UNL1        0.0660
     35 H          10.3312    2.3100    0.0000 H       1  UNL1        0.0660
     36 H           9.4842    2.5369    0.0000 H       1  UNL1        0.0660
     37 H           6.0010   -2.8100    0.0000 H       1  UNL1        0.0691
     38 H           9.5482    4.5000    0.0000 H       1  UNL1        0.0660
     39 H           8.9282    5.1200    0.0000 H       1  UNL1        0.0660
     40 H           8.3082    4.5000    0.0000 H       1  UNL1        0.0660
     41 H           6.8671   -1.3100    0.0000 H       1  UNL1        0.2922
     42 H           1.6900   -0.9631    0.0000 H       1  UNL1        0.0660
     43 H           1.4631   -1.8100    0.0000 H       1  UNL1        0.0660
     44 H           2.3100   -2.0369    0.0000 H       1  UNL1        0.0660
     45 H           5.1541   -5.0369    0.0000 H       1  UNL1        0.0660
     46 H           6.0010   -4.8100    0.0000 H       1  UNL1        0.0660
     47 H           5.7741   -3.9631    0.0000 H       1  UNL1        0.0660
@<TRIPOS>BOND
     1     1     9    1
     2     1    19    1
     3     2    12    1
     4     2    23    1
     5     3    17    1
     6     3    24    1
     7     4    15    2
     8     5    18    1
     9     5    41    1
    10     6    22    1
    11     6    25    1
    12     7     8    1
    13     7    10    1
    14     7    11    1
    15     7    26    1
    16     8     9    1
    17     8    27    1
    18     8    28    1
    19     9    12    2
    20    10    13    2
    21    10    29    1
    22    11    14    2
    23    11    30    1
    24    12    13    1
    25    13    31    1
    26    14    15    1
    27    14    32    1
    28    15    16    1
    29    16    17   ar
    30    16    18   ar
    31    17    20   ar
    32    18    21   ar
    33    19    34    1
    34    19    35    1
    35    19    36    1
    36    20    22   ar
    37    20    33    1
    38    21    22   ar
    39    21    37    1
    40    23    38    1
    41    23    39    1
    42    23    40    1
    43    24    42    1
    44    24    43    1
    45    24    44    1
    46    25    45    1
    47    25    46    1
    48    25    47    1
