@<TRIPOS>MOLECULE
IMPHY006414
 41 40 0 0 0
SMALL
GASTEIGER

@<TRIPOS>ATOM
      1 O           8.9282    0.2500    0.0000 O.3     1  UNL1       -0.4572
      2 O           9.7942   -1.2500    0.0000 O.2     1  UNL1       -0.2453
      3 C           5.4641    0.2500    0.0000 C.3     1  UNL1       -0.0285
      4 C           4.5981   -0.2500    0.0000 C.3     1  UNL1       -0.0308
      5 C           6.3301   -0.2500    0.0000 C.2     1  UNL1       -0.0731
      6 C           3.7320    0.2500    0.0000 C.2     1  UNL1       -0.0850
      7 C           7.1962    0.2500    0.0000 C.2     1  UNL1       -0.0480
      8 C           6.3301   -1.2500    0.0000 C.3     1  UNL1       -0.0437
      9 C           2.8660   -0.2500    0.0000 C.2     1  UNL1       -0.0796
     10 C           8.0622   -0.2500    0.0000 C.3     1  UNL1        0.1113
     11 C           2.0000    0.2500    0.0000 C.3     1  UNL1       -0.0440
     12 C           2.8660   -1.2500    0.0000 C.3     1  UNL1       -0.0440
     13 C           9.7942   -0.2500    0.0000 C.2     1  UNL1        0.3349
     14 C          10.6603    0.2500    0.0000 C.2     1  UNL1        0.0293
     15 C          10.6603    1.2500    0.0000 C.3     1  UNL1       -0.0333
     16 C          11.5263   -0.2500    0.0000 C.2     1  UNL1       -0.0774
     17 C          12.3923    0.2500    0.0000 C.3     1  UNL1       -0.0461
     18 H           5.8626    0.7249    0.0000 H       1  UNL1        0.0313
     19 H           5.0656    0.7249    0.0000 H       1  UNL1        0.0313
     20 H           4.1996   -0.7249    0.0000 H       1  UNL1        0.0310
     21 H           4.9966   -0.7249    0.0000 H       1  UNL1        0.0310
     22 H           3.7320    0.8700    0.0000 H       1  UNL1        0.0572
     23 H           7.1962    0.8700    0.0000 H       1  UNL1        0.0605
     24 H           5.7101   -1.2500    0.0000 H       1  UNL1        0.0274
     25 H           6.3301   -1.8700    0.0000 H       1  UNL1        0.0274
     26 H           6.9501   -1.2500    0.0000 H       1  UNL1        0.0274
     27 H           7.6636   -0.7249    0.0000 H       1  UNL1        0.0743
     28 H           8.4607   -0.7249    0.0000 H       1  UNL1        0.0743
     29 H           2.3100    0.7869    0.0000 H       1  UNL1        0.0274
     30 H           1.4631    0.5600    0.0000 H       1  UNL1        0.0274
     31 H           1.6900   -0.2869    0.0000 H       1  UNL1        0.0274
     32 H           2.2460   -1.2500    0.0000 H       1  UNL1        0.0274
     33 H           2.8660   -1.8700    0.0000 H       1  UNL1        0.0274
     34 H           3.4860   -1.2500    0.0000 H       1  UNL1        0.0274
     35 H          11.2803    1.2500    0.0000 H       1  UNL1        0.0280
     36 H          10.6603    1.8700    0.0000 H       1  UNL1        0.0280
     37 H          10.0403    1.2500    0.0000 H       1  UNL1        0.0280
     38 H          11.5263   -0.8700    0.0000 H       1  UNL1        0.0574
     39 H          12.7023   -0.2869    0.0000 H       1  UNL1        0.0272
     40 H          12.9292    0.5600    0.0000 H       1  UNL1        0.0272
     41 H          12.0823    0.7869    0.0000 H       1  UNL1        0.0272
@<TRIPOS>BOND
     1     1    10    1
     2     1    13    1
     3     2    13    2
     4     3     4    1
     5     3     5    1
     6     3    18    1
     7     3    19    1
     8     4     6    1
     9     4    20    1
    10     4    21    1
    11     5     7    2
    12     5     8    1
    13     6     9    2
    14     6    22    1
    15     7    10    1
    16     7    23    1
    17     8    24    1
    18     8    25    1
    19     8    26    1
    20     9    11    1
    21     9    12    1
    22    10    27    1
    23    10    28    1
    24    11    29    1
    25    11    30    1
    26    11    31    1
    27    12    32    1
    28    12    33    1
    29    12    34    1
    30    13    14    1
    31    14    15    1
    32    14    16    2
    33    15    35    1
    34    15    36    1
    35    15    37    1
    36    16    17    1
    37    16    38    1
    38    17    39    1
    39    17    40    1
    40    17    41    1
