@<TRIPOS>MOLECULE
IMPHY011440
 24 25 0 0 0
SMALL
GASTEIGER

@<TRIPOS>ATOM
      1 O           5.6867    0.8809    0.0000 O.3     1  UNL1       -0.3899
      2 O           2.1916    1.0937    0.0000 O.3     1  UNL1       -0.3907
      3 N           4.4298   -1.3743    0.0000 N.3     1  UNL1       -0.2896
      4 C           4.4298   -0.3743    0.0000 C.3     1  UNL1        0.0601
      5 C           5.3760   -0.0696    0.0000 C.3     1  UNL1        0.0758
      6 C           5.3760   -1.6790    0.0000 C.3     1  UNL1        0.0023
      7 C           5.9596   -0.8743    0.0000 C.3     1  UNL1       -0.0122
      8 C           3.4788   -0.0653    0.0000 C.2     1  UNL1       -0.0277
      9 C           3.4788   -1.6833    0.0000 C.3     1  UNL1        0.0181
     10 C           2.8910   -0.8743    0.0000 C.2     1  UNL1       -0.0671
     11 C           3.1697    0.8858    0.0000 C.3     1  UNL1        0.0669
     12 H           4.4309    0.4757    0.0000 H       1  UNL1        0.0535
     13 H           5.9885    0.0266    0.0000 H       1  UNL1        0.0612
     14 H           5.1250   -2.2460    0.0000 H       1  UNL1        0.0428
     15 H           5.9134   -1.9883    0.0000 H       1  UNL1        0.0428
     16 H           6.4205   -1.2890    0.0000 H       1  UNL1        0.0303
     17 H           6.4205   -0.4596    0.0000 H       1  UNL1        0.0303
     18 H           2.9418   -1.9933    0.0000 H       1  UNL1        0.0470
     19 H           3.7309   -2.2497    0.0000 H       1  UNL1        0.0470
     20 H           2.2710   -0.8743    0.0000 H       1  UNL1        0.0586
     21 H           3.7837    0.9720    0.0000 H       1  UNL1        0.0604
     22 H           3.1914    1.5054    0.0000 H       1  UNL1        0.0604
     23 H           6.2934    1.0088    0.0000 H       1  UNL1        0.2099
     24 H           2.0000    1.6833    0.0000 H       1  UNL1        0.2098
@<TRIPOS>BOND
     1     5     1    1
     2     1    23    1
     3     2    11    1
     4     2    24    1
     5     3     4    1
     6     3     6    1
     7     3     9    1
     8     4     5    1
     9     4     8    1
    10     4    12    1
    11     5     7    1
    12     5    13    1
    13     6     7    1
    14     6    14    1
    15     6    15    1
    16     7    16    1
    17     7    17    1
    18     8    10    2
    19     8    11    1
    20     9    10    1
    21     9    18    1
    22     9    19    1
    23    10    20    1
    24    11    21    1
    25    11    22    1
