@<TRIPOS>MOLECULE
IMPHY013207
 39 41 0 0 0
SMALL
GASTEIGER

@<TRIPOS>ATOM
      1 O           6.3981   -0.5223    0.0000 O.2     1  UNL1       -0.4544
      2 O           4.6497    2.5123    0.0000 O.3     1  UNL1       -0.4906
      3 O           2.8680    1.5019    0.0000 O.3     1  UNL1       -0.4914
      4 O           7.2641   -2.0223    0.0000 O.3     1  UNL1       -0.4944
      5 O           6.3981    2.4777    0.0000 O.2     1  UNL1       -0.2869
      6 C           5.5320    0.9777    0.0000 C.ar    1  UNL1        0.1091
      7 C           5.5320   -0.0223    0.0000 C.ar    1  UNL1        0.1430
      8 C           7.2641   -0.0223    0.0000 C.ar    1  UNL1        0.1427
      9 C           4.6381    1.5124    0.0000 C.ar    1  UNL1        0.1758
     10 C           8.1301   -0.5223    0.0000 C.ar    1  UNL1        0.0590
     11 C           6.3981    1.4777    0.0000 C.ar    1  UNL1        0.1967
     12 C           7.2641    0.9777    0.0000 C.ar    1  UNL1        0.0289
     13 C           3.7320    0.9985    0.0000 C.ar    1  UNL1        0.1624
     14 C           4.6381   -0.5569    0.0000 C.ar    1  UNL1       -0.0149
     15 C           3.7320   -0.0431    0.0000 C.ar    1  UNL1       -0.0128
     16 C           8.1301   -1.5223    0.0000 C.ar    1  UNL1        0.1307
     17 C           8.9962   -0.0223    0.0000 C.ar    1  UNL1       -0.0476
     18 C           8.9962   -2.0223    0.0000 C.ar    1  UNL1       -0.0192
     19 C           9.8622   -0.5223    0.0000 C.ar    1  UNL1       -0.0609
     20 C           9.8622   -1.5223    0.0000 C.ar    1  UNL1       -0.0583
     21 C           3.7895    3.0223    0.0000 C.3     1  UNL1        0.0790
     22 C           2.0000    1.0052    0.0000 C.3     1  UNL1        0.0790
     23 C           7.2641   -3.0223    0.0000 C.3     1  UNL1        0.0788
     24 H           7.8010    1.2877    0.0000 H       1  UNL1        0.0693
     25 H           4.6453   -1.1769    0.0000 H       1  UNL1        0.0656
     26 H           3.1963   -0.3552    0.0000 H       1  UNL1        0.0656
     27 H           8.9962    0.5977    0.0000 H       1  UNL1        0.0626
     28 H           8.9962   -2.6423    0.0000 H       1  UNL1        0.0654
     29 H          10.3991   -0.2123    0.0000 H       1  UNL1        0.0618
     30 H          10.3991   -1.8323    0.0000 H       1  UNL1        0.0619
     31 H           4.1057    3.5556    0.0000 H       1  UNL1        0.0660
     32 H           3.2562    3.3385    0.0000 H       1  UNL1        0.0660
     33 H           3.4733    2.4890    0.0000 H       1  UNL1        0.0660
     34 H           1.6921    1.5433    0.0000 H       1  UNL1        0.0660
     35 H           1.4619    0.6973    0.0000 H       1  UNL1        0.0660
     36 H           2.3079    0.4671    0.0000 H       1  UNL1        0.0660
     37 H           6.6441   -3.0223    0.0000 H       1  UNL1        0.0660
     38 H           7.2641   -3.6423    0.0000 H       1  UNL1        0.0660
     39 H           7.8841   -3.0223    0.0000 H       1  UNL1        0.0660
@<TRIPOS>BOND
     1     1     7   ar
     2     1     8   ar
     3     2     9    1
     4     2    21    1
     5     3    13    1
     6     3    22    1
     7     4    16    1
     8     4    23    1
     9     5    11    2
    10     6     7   ar
    11     6     9   ar
    12     6    11   ar
    13     7    14   ar
    14     8    10    1
    15     8    12   ar
    16     9    13   ar
    17    10    16   ar
    18    10    17   ar
    19    11    12   ar
    20    12    24    1
    21    13    15   ar
    22    14    15   ar
    23    14    25    1
    24    15    26    1
    25    16    18   ar
    26    17    19   ar
    27    17    27    1
    28    18    20   ar
    29    18    28    1
    30    19    20   ar
    31    19    29    1
    32    20    30    1
    33    21    31    1
    34    21    32    1
    35    21    33    1
    36    22    34    1
    37    22    35    1
    38    22    36    1
    39    23    37    1
    40    23    38    1
    41    23    39    1
