@<TRIPOS>MOLECULE
IMPHY003283
 16 16 0 0 0
SMALL
GASTEIGER

@<TRIPOS>ATOM
      1 O           3.7320    1.3450    0.0000 O.3     1  UNL1       -0.5068
      2 C           2.8660   -1.1550    0.0000 C.ar    1  UNL1       -0.0470
      3 C           2.8660   -0.1550    0.0000 C.ar    1  UNL1       -0.0173
      4 C           3.7320   -1.6550    0.0000 C.ar    1  UNL1       -0.0586
      5 C           3.7320    0.3450    0.0000 C.ar    1  UNL1        0.1171
      6 C           2.0000   -1.6550    0.0000 C.3     1  UNL1       -0.0396
      7 C           4.5981   -1.1550    0.0000 C.ar    1  UNL1       -0.0581
      8 C           4.5981   -0.1550    0.0000 C.ar    1  UNL1       -0.0202
      9 H           2.3291    0.1550    0.0000 H       1  UNL1        0.0657
     10 H           3.7320   -2.2750    0.0000 H       1  UNL1        0.0620
     11 H           1.6900   -1.1181    0.0000 H       1  UNL1        0.0278
     12 H           1.4631   -1.9650    0.0000 H       1  UNL1        0.0278
     13 H           2.3100   -2.1919    0.0000 H       1  UNL1        0.0278
     14 H           5.1350   -1.4650    0.0000 H       1  UNL1        0.0619
     15 H           5.1350    0.1550    0.0000 H       1  UNL1        0.0654
     16 H           4.2690    1.6550    0.0000 H       1  UNL1        0.2921
@<TRIPOS>BOND
     1     1     5    1
     2     1    16    1
     3     2     3   ar
     4     2     4   ar
     5     2     6    1
     6     3     5   ar
     7     3     9    1
     8     4     7   ar
     9     4    10    1
    10     5     8   ar
    11     6    11    1
    12     6    12    1
    13     6    13    1
    14     7     8   ar
    15     7    14    1
    16     8    15    1
