@<TRIPOS>MOLECULE
IMPHY005918
 46 50 0 0 0
SMALL
GASTEIGER

@<TRIPOS>ATOM
      1 O           3.1395    1.4838    0.0000 O.3     1  UNL1       -0.4665
      2 O           4.5043    2.5502    0.0000 O.2     1  UNL1       -0.2485
      3 N           7.7915   -0.6145    0.0000 N.3     1  UNL1       -0.2898
      4 N           4.4698   -0.1263    0.0000 N.ar    1  UNL1       -0.3276
      5 C           6.5198    0.1802    0.0000 C.3     1  UNL1        0.0520
      6 C           6.7786    1.1461    0.0000 C.3     1  UNL1        0.0142
      7 C           6.0420    2.1287    0.0000 C.3     1  UNL1       -0.0228
      8 C           5.2988   -0.6855    0.0000 C.ar    1  UNL1        0.0411
      9 C           4.7454    0.8350    0.0000 C.3     1  UNL1        0.1379
     10 C           5.0223   -1.6403    0.0000 C.ar    1  UNL1       -0.0161
     11 C           8.2103    0.9485    0.0000 C.2     1  UNL1       -0.0541
     12 C           8.5686    0.0149    0.0000 C.3     1  UNL1        0.0210
     13 C           7.5372   -2.1828    0.0000 C.3     1  UNL1        0.0039
     14 C           6.1144   -2.6781    0.0000 C.3     1  UNL1       -0.0125
     15 C           3.6880   -0.7403    0.0000 C.ar    1  UNL1        0.0503
     16 C           4.0288   -1.6742    0.0000 C.ar    1  UNL1        0.0034
     17 C           4.1297    1.6230    0.0000 C.2     1  UNL1        0.3306
     18 C           8.7549    1.7871    0.0000 C.2     1  UNL1       -0.0863
     19 C           2.6710   -0.5457    0.0000 C.ar    1  UNL1       -0.0376
     20 C           3.3762   -2.4781    0.0000 C.ar    1  UNL1       -0.0523
     21 C           2.0000   -1.3343    0.0000 C.ar    1  UNL1       -0.0598
     22 C           2.3550   -2.3070    0.0000 C.ar    1  UNL1       -0.0611
     23 C           8.3009    2.6781    0.0000 C.3     1  UNL1       -0.0465
     24 C           2.5238    2.2718    0.0000 C.3     1  UNL1        0.0817
     25 H           7.2132    0.6718    0.0000 H       1  UNL1        0.0527
     26 H           6.9986    1.9672    0.0000 H       1  UNL1        0.0372
     27 H           6.3598    2.6611    0.0000 H       1  UNL1        0.0291
     28 H           5.4289    2.2207    0.0000 H       1  UNL1        0.0291
     29 H           4.1368    0.7167    0.0000 H       1  UNL1        0.0650
     30 H           8.9063   -0.5051    0.0000 H       1  UNL1        0.0473
     31 H           9.1211    0.2963    0.0000 H       1  UNL1        0.0473
     32 H           7.6419   -2.7939    0.0000 H       1  UNL1        0.0430
     33 H           8.1572   -2.1800    0.0000 H       1  UNL1        0.0430
     34 H           5.6217   -3.0544    0.0000 H       1  UNL1        0.0326
     35 H           6.4082   -3.2241    0.0000 H       1  UNL1        0.0326
     36 H           9.3741    1.7547    0.0000 H       1  UNL1        0.0569
     37 H           2.4652    0.0391    0.0000 H       1  UNL1        0.0638
     38 H           3.5955   -3.0580    0.0000 H       1  UNL1        0.0624
     39 H           1.3897   -1.2248    0.0000 H       1  UNL1        0.0618
     40 H           1.9587   -2.7839    0.0000 H       1  UNL1        0.0618
     41 H           8.8534    2.9596    0.0000 H       1  UNL1        0.0272
     42 H           8.0195    3.2306    0.0000 H       1  UNL1        0.0272
     43 H           7.7485    2.3966    0.0000 H       1  UNL1        0.0272
     44 H           3.0124    2.6535    0.0000 H       1  UNL1        0.0661
     45 H           2.1421    2.7604    0.0000 H       1  UNL1        0.0661
     46 H           2.0352    1.8901    0.0000 H       1  UNL1        0.0661
@<TRIPOS>BOND
     1     1    17    1
     2     1    24    1
     3     2    17    2
     4     3     5    1
     5     3    12    1
     6     3    13    1
     7     4     8   ar
     8     4     9    1
     9     4    15   ar
    10     5     7    1
    11     5     8    1
    12     5    25    1
    13     6     7    1
    14     6     9    1
    15     6    11    1
    16     6    26    1
    17     7    27    1
    18     7    28    1
    19     8    10   ar
    20     9    17    1
    21     9    29    1
    22    10    14    1
    23    10    16   ar
    24    11    12    1
    25    11    18    2
    26    12    30    1
    27    12    31    1
    28    13    14    1
    29    13    32    1
    30    13    33    1
    31    14    34    1
    32    14    35    1
    33    15    16   ar
    34    15    19   ar
    35    16    20   ar
    36    18    23    1
    37    18    36    1
    38    19    21   ar
    39    19    37    1
    40    20    22   ar
    41    20    38    1
    42    21    22   ar
    43    21    39    1
    44    22    40    1
    45    23    41    1
    46    23    42    1
    47    23    43    1
    48    24    44    1
    49    24    45    1
    50    24    46    1
