@<TRIPOS>MOLECULE
IMPHY003996
 61 61 0 0 0
SMALL
GASTEIGER

@<TRIPOS>ATOM
      1 O          17.5885   -0.0600    0.0000 O.3     1  UNL1       -0.5059
      2 O          16.7224    1.4400    0.0000 O.3     1  UNL1       -0.4770
      3 O          14.9904    1.4400    0.0000 O.2     1  UNL1       -0.2450
      4 C           8.9282   -0.0600    0.0000 C.3     1  UNL1       -0.0531
      5 C           8.0622   -0.5600    0.0000 C.3     1  UNL1       -0.0531
      6 C           9.7942   -0.5600    0.0000 C.3     1  UNL1       -0.0531
      7 C           7.1962   -0.0600    0.0000 C.3     1  UNL1       -0.0531
      8 C          10.6603   -0.0600    0.0000 C.3     1  UNL1       -0.0531
      9 C           6.3301   -0.5600    0.0000 C.3     1  UNL1       -0.0531
     10 C          11.5263   -0.5600    0.0000 C.3     1  UNL1       -0.0530
     11 C           5.4641   -0.0600    0.0000 C.3     1  UNL1       -0.0531
     12 C          12.3923   -0.0600    0.0000 C.3     1  UNL1       -0.0528
     13 C           4.5981   -0.5600    0.0000 C.3     1  UNL1       -0.0531
     14 C          13.2583   -0.5600    0.0000 C.3     1  UNL1       -0.0490
     15 C           3.7320   -0.0600    0.0000 C.3     1  UNL1       -0.0533
     16 C          14.1244   -0.0600    0.0000 C.3     1  UNL1       -0.0268
     17 C           2.8660   -0.5600    0.0000 C.3     1  UNL1       -0.0559
     18 C          14.9904   -0.5600    0.0000 C.ar    1  UNL1       -0.0299
     19 C           2.0000   -0.0600    0.0000 C.3     1  UNL1       -0.0653
     20 C          15.8564   -0.0600    0.0000 C.ar    1  UNL1        0.1032
     21 C          14.9904   -1.5600    0.0000 C.ar    1  UNL1       -0.0576
     22 C          16.7224   -0.5600    0.0000 C.ar    1  UNL1        0.1311
     23 C          15.8564   -2.0600    0.0000 C.ar    1  UNL1       -0.0580
     24 C          16.7224   -1.5600    0.0000 C.ar    1  UNL1       -0.0193
     25 C          15.8564    0.9400    0.0000 C.2     1  UNL1        0.3406
     26 H           9.3267    0.4149    0.0000 H       1  UNL1        0.0265
     27 H           8.5297    0.4149    0.0000 H       1  UNL1        0.0265
     28 H           7.6636   -1.0350    0.0000 H       1  UNL1        0.0265
     29 H           8.4607   -1.0350    0.0000 H       1  UNL1        0.0265
     30 H           9.3957   -1.0350    0.0000 H       1  UNL1        0.0265
     31 H          10.1928   -1.0350    0.0000 H       1  UNL1        0.0265
     32 H           7.5947    0.4149    0.0000 H       1  UNL1        0.0265
     33 H           6.7976    0.4149    0.0000 H       1  UNL1        0.0265
     34 H          11.0588    0.4149    0.0000 H       1  UNL1        0.0265
     35 H          10.2617    0.4149    0.0000 H       1  UNL1        0.0265
     36 H           5.9316   -1.0350    0.0000 H       1  UNL1        0.0265
     37 H           6.7287   -1.0350    0.0000 H       1  UNL1        0.0265
     38 H          11.1278   -1.0350    0.0000 H       1  UNL1        0.0265
     39 H          11.9248   -1.0350    0.0000 H       1  UNL1        0.0265
     40 H           5.8626    0.4149    0.0000 H       1  UNL1        0.0265
     41 H           5.0656    0.4149    0.0000 H       1  UNL1        0.0265
     42 H          12.7908    0.4149    0.0000 H       1  UNL1        0.0265
     43 H          11.9938    0.4149    0.0000 H       1  UNL1        0.0265
     44 H           4.1996   -1.0350    0.0000 H       1  UNL1        0.0265
     45 H           4.9966   -1.0350    0.0000 H       1  UNL1        0.0265
     46 H          12.8598   -1.0350    0.0000 H       1  UNL1        0.0268
     47 H          13.6569   -1.0350    0.0000 H       1  UNL1        0.0268
     48 H           4.1306    0.4149    0.0000 H       1  UNL1        0.0265
     49 H           3.3335    0.4149    0.0000 H       1  UNL1        0.0265
     50 H          14.5229    0.4149    0.0000 H       1  UNL1        0.0313
     51 H          13.7258    0.4149    0.0000 H       1  UNL1        0.0313
     52 H           2.4675   -1.0350    0.0000 H       1  UNL1        0.0263
     53 H           3.2646   -1.0350    0.0000 H       1  UNL1        0.0263
     54 H           2.3100    0.4769    0.0000 H       1  UNL1        0.0230
     55 H           1.4631    0.2500    0.0000 H       1  UNL1        0.0230
     56 H           1.6900   -0.5969    0.0000 H       1  UNL1        0.0230
     57 H          14.4534   -1.8700    0.0000 H       1  UNL1        0.0621
     58 H          15.8564   -2.6800    0.0000 H       1  UNL1        0.0619
     59 H          17.2594   -1.8700    0.0000 H       1  UNL1        0.0654
     60 H          18.1254   -0.3700    0.0000 H       1  UNL1        0.2922
     61 H          16.7224    2.0600    0.0000 H       1  UNL1        0.2954
@<TRIPOS>BOND
     1     1    22    1
     2     1    60    1
     3     2    25    1
     4     2    61    1
     5     3    25    2
     6     4     5    1
     7     4     6    1
     8     4    26    1
     9     4    27    1
    10     5     7    1
    11     5    28    1
    12     5    29    1
    13     6     8    1
    14     6    30    1
    15     6    31    1
    16     7     9    1
    17     7    32    1
    18     7    33    1
    19     8    10    1
    20     8    34    1
    21     8    35    1
    22     9    11    1
    23     9    36    1
    24     9    37    1
    25    10    12    1
    26    10    38    1
    27    10    39    1
    28    11    13    1
    29    11    40    1
    30    11    41    1
    31    12    14    1
    32    12    42    1
    33    12    43    1
    34    13    15    1
    35    13    44    1
    36    13    45    1
    37    14    16    1
    38    14    46    1
    39    14    47    1
    40    15    17    1
    41    15    48    1
    42    15    49    1
    43    16    18    1
    44    16    50    1
    45    16    51    1
    46    17    19    1
    47    17    52    1
    48    17    53    1
    49    18    20   ar
    50    18    21   ar
    51    19    54    1
    52    19    55    1
    53    19    56    1
    54    20    22   ar
    55    20    25    1
    56    21    23   ar
    57    21    57    1
    58    22    24   ar
    59    23    24   ar
    60    23    58    1
    61    24    59    1
