@<TRIPOS>MOLECULE
IMPHY004384
 39 42 0 0 0
SMALL
GASTEIGER

@<TRIPOS>ATOM
      1 O           6.2258    0.5130    0.0000 O.2     1  UNL1       -0.4544
      2 O           4.3797    3.5911    0.0000 O.3     1  UNL1       -0.4873
      3 O          10.2145   -1.3221    0.0000 O.3     1  UNL1       -0.5066
      4 O           7.2145   -3.0542    0.0000 O.3     1  UNL1       -0.5066
      5 C           5.1506    1.9848    0.0000 C.ar    1  UNL1        0.0408
      6 C           6.0166    1.4848    0.0000 C.ar    1  UNL1        0.1426
      7 C           4.3797    1.3784    0.0000 C.3     1  UNL1       -0.0021
      8 C           6.8826    1.9848    0.0000 C.ar    1  UNL1        0.0213
      9 C           5.1506    2.9848    0.0000 C.ar    1  UNL1        0.1280
     10 C           7.2145    0.4099    0.0000 C.ar    1  UNL1        0.1365
     11 C           7.6196    1.3177    0.0000 C.ar    1  UNL1       -0.0081
     12 C           3.4244    1.6006    0.0000 C.2     1  UNL1       -0.0773
     13 C           6.8826    2.9848    0.0000 C.ar    1  UNL1       -0.0475
     14 C           3.0000    2.4848    0.0000 C.2     1  UNL1       -0.0394
     15 C           6.0166    3.4848    0.0000 C.ar    1  UNL1       -0.0189
     16 C           3.4244    3.3690    0.0000 C.3     1  UNL1        0.1105
     17 C           7.7145   -0.4561    0.0000 C.ar    1  UNL1        0.0242
     18 C           2.0000    2.4848    0.0000 C.3     1  UNL1       -0.0406
     19 C           7.2145   -1.3221    0.0000 C.ar    1  UNL1       -0.0093
     20 C           8.7145   -0.4561    0.0000 C.ar    1  UNL1       -0.0093
     21 C           9.2145   -1.3221    0.0000 C.ar    1  UNL1        0.1210
     22 C           7.7145   -2.1882    0.0000 C.ar    1  UNL1        0.1210
     23 C           8.7145   -2.1882    0.0000 C.ar    1  UNL1        0.0213
     24 H           4.1079    0.8212    0.0000 H       1  UNL1        0.0358
     25 H           4.8622    0.9891    0.0000 H       1  UNL1        0.0358
     26 H           8.2263    1.4455    0.0000 H       1  UNL1        0.0661
     27 H           3.0365    1.1168    0.0000 H       1  UNL1        0.0576
     28 H           7.4196    3.2948    0.0000 H       1  UNL1        0.0626
     29 H           6.0166    4.1048    0.0000 H       1  UNL1        0.0654
     30 H           3.4224    3.9890    0.0000 H       1  UNL1        0.0744
     31 H           2.8196    3.5056    0.0000 H       1  UNL1        0.0744
     32 H           2.0000    3.1048    0.0000 H       1  UNL1        0.0275
     33 H           1.3800    2.4848    0.0000 H       1  UNL1        0.0275
     34 H           2.0000    1.8648    0.0000 H       1  UNL1        0.0275
     35 H           6.5945   -1.3221    0.0000 H       1  UNL1        0.0661
     36 H           9.0245    0.0808    0.0000 H       1  UNL1        0.0661
     37 H           9.0245   -2.7251    0.0000 H       1  UNL1        0.0691
     38 H          10.5245   -1.8591    0.0000 H       1  UNL1        0.2921
     39 H           7.5245   -3.5911    0.0000 H       1  UNL1        0.2921
@<TRIPOS>BOND
     1     1     6   ar
     2     1    10   ar
     3     2     9    1
     4     2    16    1
     5     3    21    1
     6     3    38    1
     7     4    22    1
     8     4    39    1
     9     5     6   ar
    10     5     7    1
    11     5     9   ar
    12     6     8   ar
    13     7    12    1
    14     7    24    1
    15     7    25    1
    16     8    11   ar
    17     8    13   ar
    18     9    15   ar
    19    10    11   ar
    20    10    17    1
    21    11    26    1
    22    12    14    2
    23    12    27    1
    24    13    15   ar
    25    13    28    1
    26    14    16    1
    27    14    18    1
    28    15    29    1
    29    16    30    1
    30    16    31    1
    31    17    19   ar
    32    17    20   ar
    33    18    32    1
    34    18    33    1
    35    18    34    1
    36    19    22   ar
    37    19    35    1
    38    20    21   ar
    39    20    36    1
    40    21    23   ar
    41    22    23   ar
    42    23    37    1
