@<TRIPOS>MOLECULE
IMPHY000461
 28 28 0 0 0
SMALL
GASTEIGER

@<TRIPOS>ATOM
      1 C           5.9991    4.3275    0.0000 C.ar    1  UNL1        0.0819
      2 C           6.9983    4.3275    0.0000 C.ar    1  UNL1        0.0819
      3 C           5.4976    3.4620    0.0000 C.2     1  UNL1        0.3414
      4 C           5.4976    5.1930    0.0000 C.ar    1  UNL1        0.0066
      5 C           7.4998    3.4620    0.0000 C.2     1  UNL1        0.3414
      6 C           7.4998    5.1930    0.0000 C.ar    1  UNL1        0.0066
      7 O           4.4984    3.4620    0.0000 O.3     1  UNL1       -0.4454
      8 O           5.9991    2.5965    0.0000 O.2     1  UNL1       -0.2449
      9 C           5.9991    6.0622    0.0000 C.ar    1  UNL1        0.0002
     10 O           8.4990    3.4620    0.0000 O.3     1  UNL1       -0.4454
     11 O           6.9983    2.5965    0.0000 O.2     1  UNL1       -0.2449
     12 C           6.9983    6.0622    0.0000 C.ar    1  UNL1        0.0002
     13 C           3.9969    2.5965    0.0000 C.3     1  UNL1        0.2086
     14 C           9.0004    2.5965    0.0000 C.3     1  UNL1        0.2086
     15 C           2.9977    2.5965    0.0000 C.3     1  UNL1        0.0439
     16 C           9.9997    2.5965    0.0000 C.3     1  UNL1        0.0439
     17 C           2.4999    1.7310    0.0000 C.3     1  UNL1        0.0037
     18 C           2.4999    3.4620    0.0000 C.3     1  UNL1        0.0038
     19 C          10.4974    1.7310    0.0000 C.3     1  UNL1        0.0037
     20 C          10.4974    3.4620    0.0000 C.3     1  UNL1        0.0038
     21 C           1.4970    1.7310    0.0000 C.3     1  UNL1        0.0001
     22 C          11.5004    1.7310    0.0000 C.3     1  UNL1        0.0001
     23 C           0.9992    0.8655    0.0000 C.3     1  UNL1        0.0000
     24 C          11.9981    0.8655    0.0000 C.3     1  UNL1        0.0000
     25 C           0.0000    0.8655    0.0000 C.3     1  UNL1        0.0000
     26 C           1.4970    0.0000    0.0000 C.3     1  UNL1        0.0000
     27 C          13.0011    0.8655    0.0000 C.3     1  UNL1        0.0000
     28 C          11.5004    0.0000    0.0000 C.3     1  UNL1        0.0000
@<TRIPOS>BOND
     1     1     2   ar
     2     1     3    1
     3     1     4   ar
     4     2     5    1
     5     2     6   ar
     6     3     7    1
     7     3     8    2
     8     4     9   ar
     9     5    10    1
    10     5    11    2
    11     6    12   ar
    12     7    13    1
    13     9    12   ar
    14    10    14    1
    15    13    15    1
    16    14    16    1
    17    15    17    1
    18    15    18    1
    19    16    19    1
    20    16    20    1
    21    17    21    1
    22    19    22    1
    23    21    23    1
    24    22    24    1
    25    23    25    1
    26    23    26    1
    27    24    27    1
    28    24    28    1
