@<TRIPOS>MOLECULE
IMPHY013152
 53 55 0 0 0
SMALL
GASTEIGER

@<TRIPOS>ATOM
      1 O           7.8133   -0.7557    0.0000 O.3     1  UNL1       -0.4797
      2 O           6.0010   -1.9510    0.0000 O.3     1  UNL1       -0.4914
      3 O           4.2690    2.0490    0.0000 O.3     1  UNL1       -0.3726
      4 O           2.5369    1.0490    0.0000 O.3     1  UNL1       -0.3892
      5 O          11.3969   -1.6830    0.0000 O.3     1  UNL1       -0.4914
      6 O          12.3969    0.0490    0.0000 O.3     1  UNL1       -0.5033
      7 C           7.8133    0.8538    0.0000 C.3     1  UNL1        0.0262
      8 C           8.3969    0.0490    0.0000 C.3     1  UNL1        0.1321
      9 C           6.8671    0.5490    0.0000 C.ar    1  UNL1        0.0050
     10 C           6.8671   -0.4510    0.0000 C.ar    1  UNL1        0.1664
     11 C           8.1240    1.8043    0.0000 C.3     1  UNL1       -0.0546
     12 C           6.0010    1.0490    0.0000 C.ar    1  UNL1       -0.0488
     13 C           9.3969    0.0490    0.0000 C.ar    1  UNL1       -0.0031
     14 C           5.1350    0.5490    0.0000 C.ar    1  UNL1       -0.0125
     15 C           6.0010   -0.9510    0.0000 C.ar    1  UNL1        0.1622
     16 C           4.2690    1.0490    0.0000 C.3     1  UNL1        0.1089
     17 C           5.1350   -0.4510    0.0000 C.ar    1  UNL1       -0.0106
     18 C           3.4030    0.5490    0.0000 C.3     1  UNL1        0.0826
     19 C           9.8969   -0.8170    0.0000 C.ar    1  UNL1       -0.0096
     20 C           9.8969    0.9151    0.0000 C.ar    1  UNL1       -0.0514
     21 C          10.8969   -0.8170    0.0000 C.ar    1  UNL1        0.1616
     22 C           3.4030   -0.4510    0.0000 C.3     1  UNL1       -0.0362
     23 C          10.8969    0.9151    0.0000 C.ar    1  UNL1       -0.0161
     24 C          11.3969    0.0490    0.0000 C.ar    1  UNL1        0.1585
     25 C           5.1350   -2.4510    0.0000 C.3     1  UNL1        0.0790
     26 C           3.4030    2.5490    0.0000 C.3     1  UNL1        0.0373
     27 C          10.8969   -2.5490    0.0000 C.3     1  UNL1        0.0790
     28 H           7.3758    1.2931    0.0000 H       1  UNL1        0.0387
     29 H           8.6786   -0.5033    0.0000 H       1  UNL1        0.0790
     30 H           8.7133    1.6117    0.0000 H       1  UNL1        0.0237
     31 H           8.3166    2.3936    0.0000 H       1  UNL1        0.0237
     32 H           7.5346    1.9969    0.0000 H       1  UNL1        0.0237
     33 H           6.0010    1.6690    0.0000 H       1  UNL1        0.0625
     34 H           4.8059    1.3590    0.0000 H       1  UNL1        0.0672
     35 H           4.5981   -0.7610    0.0000 H       1  UNL1        0.0659
     36 H           3.4030    1.1690    0.0000 H       1  UNL1        0.0620
     37 H           9.5869   -1.3539    0.0000 H       1  UNL1        0.0659
     38 H           9.5869    1.4520    0.0000 H       1  UNL1        0.0623
     39 H           2.7830   -0.4510    0.0000 H       1  UNL1        0.0255
     40 H           3.4030   -1.0710    0.0000 H       1  UNL1        0.0255
     41 H           4.0230   -0.4510    0.0000 H       1  UNL1        0.0255
     42 H          11.2069    1.4520    0.0000 H       1  UNL1        0.0655
     43 H           2.0000    0.7390    0.0000 H       1  UNL1        0.2099
     44 H           4.8250   -1.9140    0.0000 H       1  UNL1        0.0660
     45 H           4.5981   -2.7610    0.0000 H       1  UNL1        0.0660
     46 H           5.4450   -2.9879    0.0000 H       1  UNL1        0.0660
     47 H           3.7130    3.0860    0.0000 H       1  UNL1        0.0524
     48 H           2.8660    2.8590    0.0000 H       1  UNL1        0.0524
     49 H           3.0930    2.0121    0.0000 H       1  UNL1        0.0524
     50 H          12.7069    0.5860    0.0000 H       1  UNL1        0.2923
     51 H          10.3600   -2.2390    0.0000 H       1  UNL1        0.0660
     52 H          10.5869   -3.0860    0.0000 H       1  UNL1        0.0660
     53 H          11.4338   -2.8590    0.0000 H       1  UNL1        0.0660
@<TRIPOS>BOND
     1     1     8    1
     2     1    10    1
     3     2    15    1
     4     2    25    1
     5     3    16    1
     6     3    26    1
     7     4    18    1
     8     4    43    1
     9     5    21    1
    10     5    27    1
    11     6    24    1
    12     6    50    1
    13     7     8    1
    14     7     9    1
    15     7    11    1
    16     7    28    1
    17     8    13    1
    18     8    29    1
    19     9    10   ar
    20     9    12   ar
    21    10    15   ar
    22    11    30    1
    23    11    31    1
    24    11    32    1
    25    12    14   ar
    26    12    33    1
    27    13    19   ar
    28    13    20   ar
    29    14    16    1
    30    14    17   ar
    31    15    17   ar
    32    16    18    1
    33    16    34    1
    34    17    35    1
    35    18    22    1
    36    18    36    1
    37    19    21   ar
    38    19    37    1
    39    20    23   ar
    40    20    38    1
    41    21    24   ar
    42    22    39    1
    43    22    40    1
    44    22    41    1
    45    23    24   ar
    46    23    42    1
    47    25    44    1
    48    25    45    1
    49    25    46    1
    50    26    47    1
    51    26    48    1
    52    26    49    1
    53    27    51    1
    54    27    52    1
    55    27    53    1
