@<TRIPOS>MOLECULE
IMPHY001188
 181 191 0 0 0
SMALL
GASTEIGER

@<TRIPOS>ATOM
      1 O           5.7799    1.3568    0.0000 O.3     1  UNL1       -0.3719
      2 O           5.6757    3.7536    0.0000 O.3     1  UNL1       -0.3911
      3 O          11.1748   -2.5000    0.0000 O.3     1  UNL1       -0.3448
      4 O          11.7977    0.0077    0.0000 O.3     1  UNL1       -0.3944
      5 O          12.0408   -1.0000    0.0000 O.3     1  UNL1       -0.3460
      6 O          12.9068   -3.5000    0.0000 O.3     1  UNL1       -0.3378
      7 O          14.6389   -2.5000    0.0000 O.3     1  UNL1       -0.3864
      8 O          14.6389   -0.5000    0.0000 O.3     1  UNL1       -0.3405
      9 O          11.1748   -3.5000    0.0000 O.3     1  UNL1       -0.3405
     10 O          12.9068   -5.5000    0.0000 O.3     1  UNL1       -0.3841
     11 O          13.7729    1.0000    0.0000 O.3     1  UNL1       -0.3405
     12 O          11.1748   -6.5000    0.0000 O.3     1  UNL1       -0.3864
     13 O          16.3709    0.5000    0.0000 O.3     1  UNL1       -0.3378
     14 O           9.4427   -5.5000    0.0000 O.3     1  UNL1       -0.3865
     15 O          16.3709    2.5000    0.0000 O.3     1  UNL1       -0.3864
     16 O          14.6389    3.5000    0.0000 O.3     1  UNL1       -0.3401
     17 O           8.5767   -4.0000    0.0000 O.3     1  UNL1       -0.3924
     18 O          12.0408    2.0000    0.0000 O.3     1  UNL1       -0.3924
     19 O          17.2370    2.0000    0.0000 O.3     1  UNL1       -0.3461
     20 O          12.9068    3.5000    0.0000 O.3     1  UNL1       -0.3405
     21 O          18.1030   -0.5000    0.0000 O.3     1  UNL1       -0.3841
     22 O          19.8350    0.5000    0.0000 O.3     1  UNL1       -0.3864
     23 O          14.6389    5.5000    0.0000 O.3     1  UNL1       -0.3841
     24 O          19.8350    2.5000    0.0000 O.3     1  UNL1       -0.3869
     25 O          12.9068    6.5000    0.0000 O.3     1  UNL1       -0.3864
     26 O          11.1748    5.5000    0.0000 O.3     1  UNL1       -0.3865
     27 O          11.1748    2.5000    0.0000 O.3     1  UNL1       -0.3924
     28 C           6.5321    1.2503    0.0000 C.3     1  UNL1        0.0053
     29 C           5.6642    0.7537    0.0000 C.3     1  UNL1        0.0790
     30 C           7.4402    0.7400    0.0000 C.3     1  UNL1       -0.0206
     31 C           4.8001    1.2570    0.0000 C.3     1  UNL1       -0.0008
     32 C           4.8039    2.2570    0.0000 C.3     1  UNL1        0.0255
     33 C           7.4442   -0.3017    0.0000 C.3     1  UNL1       -0.0293
     34 C           8.3775   -0.8550    0.0000 C.3     1  UNL1       -0.0252
     35 C           6.5360    2.2503    0.0000 C.3     1  UNL1       -0.0177
     36 C           5.6441   -0.2878    0.0000 C.3     1  UNL1       -0.0226
     37 C           5.6719    2.7536    0.0000 C.3     1  UNL1        0.0639
     38 C           6.5401   -0.8190    0.0000 C.3     1  UNL1       -0.0466
     39 C           9.3192   -0.3161    0.0000 C.3     1  UNL1       -0.0255
     40 C           8.3692    1.3005    0.0000 C.3     1  UNL1       -0.0465
     41 C           5.3826    2.0512    0.0000 C.3     1  UNL1        0.0567
     42 C           3.9041    0.7258    0.0000 C.3     1  UNL1       -0.0417
     43 C           3.9121    2.7951    0.0000 C.3     1  UNL1       -0.0421
     44 C           9.3150    0.7689    0.0000 C.3     1  UNL1       -0.0485
     45 C           7.1778    2.0139    0.0000 C.3     1  UNL1       -0.0563
     46 C           7.7786    1.6810    0.0000 C.3     1  UNL1       -0.0587
     47 C           3.0000    1.2431    0.0000 C.3     1  UNL1       -0.0345
     48 C          10.3044   -0.8698    0.0000 C.3     1  UNL1        0.0206
     49 C           8.3557   -1.9849    0.0000 C.3     1  UNL1       -0.0447
     50 C           3.0040    2.2847    0.0000 C.3     1  UNL1       -0.0472
     51 C           7.5095   -1.3516    0.0000 C.3     1  UNL1       -0.0590
     52 C          10.3088   -2.0000    0.0000 C.3     1  UNL1        0.0695
     53 C           9.3278   -2.5613    0.0000 C.3     1  UNL1       -0.0254
     54 C          10.7977    0.0000    0.0000 C.3     1  UNL1        0.0522
     55 C           2.0000    1.2431    0.0000 C.3     1  UNL1       -0.0598
     56 C           2.5000    0.3771    0.0000 C.3     1  UNL1       -0.0598
     57 C          11.3044   -0.8621    0.0000 C.3     1  UNL1       -0.0548
     58 C          12.0408   -2.0000    0.0000 C.3     1  UNL1        0.1882
     59 C          12.9068   -2.5000    0.0000 C.3     1  UNL1        0.1406
     60 C          13.7729   -2.0000    0.0000 C.3     1  UNL1        0.1144
     61 C          12.9068   -0.5000    0.0000 C.3     1  UNL1        0.0796
     62 C          13.7729   -1.0000    0.0000 C.3     1  UNL1        0.1135
     63 C          12.0408   -4.0000    0.0000 C.3     1  UNL1        0.1885
     64 C          12.0408   -5.0000    0.0000 C.3     1  UNL1        0.1341
     65 C          14.6389    0.5000    0.0000 C.3     1  UNL1        0.1888
     66 C          11.1748   -5.5000    0.0000 C.3     1  UNL1        0.1141
     67 C          10.3088   -4.0000    0.0000 C.3     1  UNL1        0.1130
     68 C          10.3088   -5.0000    0.0000 C.3     1  UNL1        0.1119
     69 C          15.5049    1.0000    0.0000 C.3     1  UNL1        0.1406
     70 C          15.5049    2.0000    0.0000 C.3     1  UNL1        0.1148
     71 C          13.7729    2.0000    0.0000 C.3     1  UNL1        0.1134
     72 C           9.4427   -3.5000    0.0000 C.3     1  UNL1        0.0730
     73 C          14.6389    2.5000    0.0000 C.3     1  UNL1        0.1184
     74 C          12.9068    2.5000    0.0000 C.3     1  UNL1        0.0730
     75 C          17.2370    1.0000    0.0000 C.3     1  UNL1        0.1881
     76 C          18.1030    0.5000    0.0000 C.3     1  UNL1        0.1341
     77 C          13.7729    4.0000    0.0000 C.3     1  UNL1        0.1884
     78 C          18.9690    1.0000    0.0000 C.3     1  UNL1        0.1137
     79 C          13.7729    5.0000    0.0000 C.3     1  UNL1        0.1341
     80 C          18.1030    2.5000    0.0000 C.3     1  UNL1        0.0792
     81 C          18.9690    2.0000    0.0000 C.3     1  UNL1        0.1069
     82 C          12.9068    5.5000    0.0000 C.3     1  UNL1        0.1141
     83 C          12.0408    4.0000    0.0000 C.3     1  UNL1        0.1130
     84 C          12.0408    5.0000    0.0000 C.3     1  UNL1        0.1119
     85 C          11.1748    3.5000    0.0000 C.3     1  UNL1        0.0730
     86 H           4.7968    0.4070    0.0000 H       1  UNL1        0.0336
     87 H           7.4376   -1.1516    0.0000 H       1  UNL1        0.0312
     88 H           7.1461    2.1403    0.0000 H       1  UNL1        0.0297
     89 H           6.7503    2.8321    0.0000 H       1  UNL1        0.0297
     90 H           5.0354   -0.1699    0.0000 H       1  UNL1        0.0293
     91 H           5.4238   -0.8673    0.0000 H       1  UNL1        0.0293
     92 H           6.2100    3.0616    0.0000 H       1  UNL1        0.0600
     93 H           6.1373   -1.2903    0.0000 H       1  UNL1        0.0269
     94 H           6.9356   -1.2965    0.0000 H       1  UNL1        0.0269
     95 H          10.0520    0.1145    0.0000 H       1  UNL1        0.0313
     96 H           8.7609    1.7810    0.0000 H       1  UNL1        0.0271
     97 H           7.9628    1.7687    0.0000 H       1  UNL1        0.0271
     98 H           5.9859    2.1941    0.0000 H       1  UNL1        0.0566
     99 H           5.4164    2.6702    0.0000 H       1  UNL1        0.0566
    100 H           3.5086    0.2483    0.0000 H       1  UNL1        0.0274
    101 H           4.3069    0.2544    0.0000 H       1  UNL1        0.0274
    102 H           4.3185    3.2633    0.0000 H       1  UNL1        0.0272
    103 H           3.5203    3.2756    0.0000 H       1  UNL1        0.0272
    104 H           9.9263    0.6651    0.0000 H       1  UNL1        0.0268
    105 H           9.5218    1.3534    0.0000 H       1  UNL1        0.0268
    106 H           7.6513    1.6135    0.0000 H       1  UNL1        0.0236
    107 H           7.5782    2.4873    0.0000 H       1  UNL1        0.0236
    108 H           6.7044    2.4142    0.0000 H       1  UNL1        0.0236
    109 H           8.3620    1.4712    0.0000 H       1  UNL1        0.0235
    110 H           7.9884    2.2644    0.0000 H       1  UNL1        0.0235
    111 H           7.1951    1.8908    0.0000 H       1  UNL1        0.0235
    112 H           7.7470   -1.8671    0.0000 H       1  UNL1        0.0271
    113 H           8.1354   -2.5645    0.0000 H       1  UNL1        0.0271
    114 H           2.7972    2.8692    0.0000 H       1  UNL1        0.0271
    115 H           2.3928    2.1810    0.0000 H       1  UNL1        0.0271
    116 H           7.2016   -0.8135    0.0000 H       1  UNL1        0.0235
    117 H           6.9714   -1.6596    0.0000 H       1  UNL1        0.0235
    118 H           7.8174   -1.8898    0.0000 H       1  UNL1        0.0235
    119 H          10.8451   -1.6890    0.0000 H       1  UNL1        0.0603
    120 H           8.9250   -3.0326    0.0000 H       1  UNL1        0.0290
    121 H           9.7233   -3.0388    0.0000 H       1  UNL1        0.0290
    122 H           5.1400    4.0657    0.0000 H       1  UNL1        0.2098
    123 H          10.9007    0.6114    0.0000 H       1  UNL1        0.0563
    124 H          10.2135    0.2076    0.0000 H       1  UNL1        0.0563
    125 H           2.0000    1.8631    0.0000 H       1  UNL1        0.0235
    126 H           1.3800    1.2431    0.0000 H       1  UNL1        0.0235
    127 H           2.0000    0.6231    0.0000 H       1  UNL1        0.0235
    128 H           1.9631    0.6871    0.0000 H       1  UNL1        0.0235
    129 H           2.1900   -0.1599    0.0000 H       1  UNL1        0.0235
    130 H           3.0369    0.0671    0.0000 H       1  UNL1        0.0235
    131 H          11.3092   -1.4821    0.0000 H       1  UNL1        0.0237
    132 H          11.9244   -0.8574    0.0000 H       1  UNL1        0.0237
    133 H          11.2996   -0.2422    0.0000 H       1  UNL1        0.0237
    134 H          12.1035    0.5470    0.0000 H       1  UNL1        0.2094
    135 H          12.0408   -2.6200    0.0000 H       1  UNL1        0.0937
    136 H          13.4438   -2.8100    0.0000 H       1  UNL1        0.0675
    137 H          14.3098   -1.6900    0.0000 H       1  UNL1        0.0648
    138 H          13.3054   -0.0251    0.0000 H       1  UNL1        0.0587
    139 H          12.5083   -0.0251    0.0000 H       1  UNL1        0.0587
    140 H          13.7729   -0.3800    0.0000 H       1  UNL1        0.0647
    141 H          12.5777   -4.3100    0.0000 H       1  UNL1        0.0938
    142 H          15.1758   -2.1900    0.0000 H       1  UNL1        0.2100
    143 H          12.0408   -5.6200    0.0000 H       1  UNL1        0.0671
    144 H          14.1020    0.1900    0.0000 H       1  UNL1        0.0938
    145 H          10.6378   -5.8100    0.0000 H       1  UNL1        0.0648
    146 H          10.3088   -3.3800    0.0000 H       1  UNL1        0.0647
    147 H           9.7718   -4.6900    0.0000 H       1  UNL1        0.0647
    148 H          16.0418    1.3100    0.0000 H       1  UNL1        0.0675
    149 H          13.4438   -5.1900    0.0000 H       1  UNL1        0.2101
    150 H          15.5049    2.6200    0.0000 H       1  UNL1        0.0648
    151 H          13.2359    1.6900    0.0000 H       1  UNL1        0.0647
    152 H           9.8413   -3.0250    0.0000 H       1  UNL1        0.0584
    153 H           9.0442   -3.0250    0.0000 H       1  UNL1        0.0584
    154 H          14.1020    2.8100    0.0000 H       1  UNL1        0.0651
    155 H          11.7117   -6.8100    0.0000 H       1  UNL1        0.2100
    156 H           9.4427   -6.1200    0.0000 H       1  UNL1        0.2100
    157 H          13.3054    2.9750    0.0000 H       1  UNL1        0.0584
    158 H          12.5083    2.9750    0.0000 H       1  UNL1        0.0584
    159 H          16.3709    3.1200    0.0000 H       1  UNL1        0.2100
    160 H          16.7000    1.3100    0.0000 H       1  UNL1        0.0937
    161 H           8.0398   -3.6900    0.0000 H       1  UNL1        0.2095
    162 H          17.5661    0.1900    0.0000 H       1  UNL1        0.0671
    163 H          14.3098    4.3100    0.0000 H       1  UNL1        0.0938
    164 H          12.0408    1.3800    0.0000 H       1  UNL1        0.2095
    165 H          18.9690    0.3800    0.0000 H       1  UNL1        0.0647
    166 H          13.7729    5.6200    0.0000 H       1  UNL1        0.0671
    167 H          18.5015    2.9750    0.0000 H       1  UNL1        0.0587
    168 H          17.7045    2.9750    0.0000 H       1  UNL1        0.0587
    169 H          18.9690    2.6200    0.0000 H       1  UNL1        0.0643
    170 H          18.6399   -0.8100    0.0000 H       1  UNL1        0.2101
    171 H          12.3699    5.8100    0.0000 H       1  UNL1        0.0648
    172 H          12.0408    3.3800    0.0000 H       1  UNL1        0.0647
    173 H          12.6029    5.6200    0.0000 H       1  UNL1        0.0647
    174 H          20.3720    0.8100    0.0000 H       1  UNL1        0.2100
    175 H          14.6389    6.1200    0.0000 H       1  UNL1        0.2101
    176 H          19.8350    3.1200    0.0000 H       1  UNL1        0.2100
    177 H          10.9627    4.0826    0.0000 H       1  UNL1        0.0584
    178 H          10.5642    3.3923    0.0000 H       1  UNL1        0.0584
    179 H          12.3699    6.8100    0.0000 H       1  UNL1        0.2100
    180 H          10.6378    5.1900    0.0000 H       1  UNL1        0.2100
    181 H          10.6378    2.1900    0.0000 H       1  UNL1        0.2095
@<TRIPOS>BOND
     1     1    29    1
     2     1    41    1
     3    37     2    1
     4     2   122    1
     5    52     3    1
     6    58     3    1
     7     4    54    1
     8     4   134    1
     9     5    58    1
    10     5    61    1
    11    59     6    1
    12    63     6    1
    13    60     7    1
    14     7   142    1
    15    62     8    1
    16    65     8    1
    17     9    63    1
    18     9    67    1
    19    64    10    1
    20    10   149    1
    21    11    65    1
    22    11    71    1
    23    66    12    1
    24    12   155    1
    25    69    13    1
    26    75    13    1
    27    68    14    1
    28    14   156    1
    29    70    15    1
    30    15   159    1
    31    73    16    1
    32    77    16    1
    33    17    72    1
    34    17   161    1
    35    18    74    1
    36    18   164    1
    37    19    75    1
    38    19    80    1
    39    20    77    1
    40    20    83    1
    41    76    21    1
    42    21   170    1
    43    78    22    1
    44    22   174    1
    45    79    23    1
    46    23   175    1
    47    81    24    1
    48    24   176    1
    49    82    25    1
    50    25   179    1
    51    84    26    1
    52    26   180    1
    53    27    85    1
    54    27   181    1
    55    28    29    1
    56    28    30    1
    57    28    35    1
    58    28    45    1
    59    29    31    1
    60    29    36    1
    61    30    33    1
    62    30    40    1
    63    30    46    1
    64    31    32    1
    65    31    42    1
    66    31    86    1
    67    32    37    1
    68    32    41    1
    69    32    43    1
    70    33    34    1
    71    33    38    1
    72    33    87    1
    73    34    39    1
    74    34    49    1
    75    34    51    1
    76    35    37    1
    77    35    88    1
    78    35    89    1
    79    36    38    1
    80    36    90    1
    81    36    91    1
    82    37    92    1
    83    38    93    1
    84    38    94    1
    85    39    44    1
    86    39    48    1
    87    39    95    1
    88    40    44    1
    89    40    96    1
    90    40    97    1
    91    41    98    1
    92    41    99    1
    93    42    47    1
    94    42   100    1
    95    42   101    1
    96    43    50    1
    97    43   102    1
    98    43   103    1
    99    44   104    1
   100    44   105    1
   101    45   106    1
   102    45   107    1
   103    45   108    1
   104    46   109    1
   105    46   110    1
   106    46   111    1
   107    47    50    1
   108    47    55    1
   109    47    56    1
   110    48    52    1
   111    48    54    1
   112    48    57    1
   113    49    53    1
   114    49   112    1
   115    49   113    1
   116    50   114    1
   117    50   115    1
   118    51   116    1
   119    51   117    1
   120    51   118    1
   121    52    53    1
   122    52   119    1
   123    53   120    1
   124    53   121    1
   125    54   123    1
   126    54   124    1
   127    55   125    1
   128    55   126    1
   129    55   127    1
   130    56   128    1
   131    56   129    1
   132    56   130    1
   133    57   131    1
   134    57   132    1
   135    57   133    1
   136    58    59    1
   137    58   135    1
   138    59    60    1
   139    59   136    1
   140    60    62    1
   141    60   137    1
   142    61    62    1
   143    61   138    1
   144    61   139    1
   145    62   140    1
   146    63    64    1
   147    63   141    1
   148    64    66    1
   149    64   143    1
   150    65    69    1
   151    65   144    1
   152    66    68    1
   153    66   145    1
   154    67    68    1
   155    67    72    1
   156    67   146    1
   157    68   147    1
   158    69    70    1
   159    69   148    1
   160    70    73    1
   161    70   150    1
   162    71    73    1
   163    71    74    1
   164    71   151    1
   165    72   152    1
   166    72   153    1
   167    73   154    1
   168    74   157    1
   169    74   158    1
   170    75    76    1
   171    75   160    1
   172    76    78    1
   173    76   162    1
   174    77    79    1
   175    77   163    1
   176    78    81    1
   177    78   165    1
   178    79    82    1
   179    79   166    1
   180    80    81    1
   181    80   167    1
   182    80   168    1
   183    81   169    1
   184    82    84    1
   185    82   171    1
   186    83    84    1
   187    83    85    1
   188    83   172    1
   189    84   173    1
   190    85   177    1
   191    85   178    1
