@<TRIPOS>MOLECULE
IMPHY000914
 76 80 0 0 0
SMALL
GASTEIGER

@<TRIPOS>ATOM
      1 O           8.1101   -2.8743    0.0000 O.3     1  UNL1       -0.3366
      2 O           7.2441   -0.3743    0.0000 O.3     1  UNL1       -0.3313
      3 O           6.3781   -2.8743    0.0000 O.3     1  UNL1       -0.3431
      4 O           6.3781   -1.8743    0.0000 O.3     1  UNL1       -0.4606
      5 O           9.8422   -1.8743    0.0000 O.3     1  UNL1       -0.3863
      6 O           9.8422    0.1257    0.0000 O.3     1  UNL1       -0.3865
      7 O           8.1101   -4.8743    0.0000 O.3     1  UNL1       -0.3841
      8 O           6.3781   -5.8743    0.0000 O.3     1  UNL1       -0.3864
      9 O           4.6460   -4.8743    0.0000 O.3     1  UNL1       -0.3866
     10 O           8.9761    1.6257    0.0000 O.3     1  UNL1       -0.3924
     11 O           4.6038    1.1777    0.0000 O.3     1  UNL1       -0.4828
     12 O           2.8383   -1.8470    0.0000 O.3     1  UNL1       -0.5058
     13 O           2.0000   -0.3123    0.0000 O.2     1  UNL1       -0.2917
     14 O           3.7552    5.6810    0.0000 O.3     1  UNL1       -0.4951
     15 C           8.1101   -1.8743    0.0000 C.3     1  UNL1        0.1519
     16 C           8.9761   -1.3743    0.0000 C.3     1  UNL1        0.1155
     17 C           8.9761   -0.3743    0.0000 C.3     1  UNL1        0.1120
     18 C           7.2441   -3.3743    0.0000 C.3     1  UNL1        0.1885
     19 C           7.2441   -1.3743    0.0000 C.3     1  UNL1        0.2312
     20 C           7.2441   -4.3743    0.0000 C.3     1  UNL1        0.1341
     21 C           8.1101    0.1257    0.0000 C.3     1  UNL1        0.1140
     22 C           6.3781   -4.8743    0.0000 C.3     1  UNL1        0.1140
     23 C           5.5120   -4.3743    0.0000 C.3     1  UNL1        0.1095
     24 C           5.5120   -3.3743    0.0000 C.3     1  UNL1        0.0873
     25 C           8.1101    1.1257    0.0000 C.3     1  UNL1        0.0731
     26 C           4.6460   -2.8743    0.0000 C.3     1  UNL1       -0.0361
     27 C           5.5120   -1.3743    0.0000 C.ar    1  UNL1        0.1310
     28 C           5.5080   -0.3327    0.0000 C.ar    1  UNL1        0.0229
     29 C           4.6080   -1.8916    0.0000 C.ar    1  UNL1        0.0226
     30 C           4.6000    0.1777    0.0000 C.ar    1  UNL1        0.1389
     31 C           3.7320   -0.3190    0.0000 C.ar    1  UNL1        0.1007
     32 C           3.7398    1.6810    0.0000 C.3     1  UNL1        0.1322
     33 C           3.7120   -1.3604    0.0000 C.ar    1  UNL1        0.1343
     34 C           2.8718    1.1843    0.0000 C.3     1  UNL1        0.0520
     35 C           2.8680    0.1843    0.0000 C.2     1  UNL1        0.1740
     36 C           3.7436    2.6810    0.0000 C.ar    1  UNL1       -0.0067
     37 C           4.6116    3.1776    0.0000 C.ar    1  UNL1       -0.0516
     38 C           2.8795    3.1843    0.0000 C.ar    1  UNL1       -0.0516
     39 C           4.6154    4.1776    0.0000 C.ar    1  UNL1       -0.0196
     40 C           2.8834    4.1843    0.0000 C.ar    1  UNL1       -0.0196
     41 C           3.7513    4.6810    0.0000 C.ar    1  UNL1        0.1201
     42 C           2.8911    6.1843    0.0000 C.3     1  UNL1        0.0788
     43 H           7.5732   -2.1843    0.0000 H       1  UNL1        0.0687
     44 H           9.5131   -1.0643    0.0000 H       1  UNL1        0.0648
     45 H           8.9761    0.2457    0.0000 H       1  UNL1        0.0647
     46 H           7.2441   -2.7543    0.0000 H       1  UNL1        0.0938
     47 H           6.7072   -1.0643    0.0000 H       1  UNL1        0.1084
     48 H           7.7810   -4.0643    0.0000 H       1  UNL1        0.0671
     49 H           7.5732    0.4357    0.0000 H       1  UNL1        0.0647
     50 H           6.9150   -5.1843    0.0000 H       1  UNL1        0.0648
     51 H           4.9751   -4.0643    0.0000 H       1  UNL1        0.0646
     52 H           5.5120   -2.7543    0.0000 H       1  UNL1        0.0621
     53 H           7.8981    1.7083    0.0000 H       1  UNL1        0.0584
     54 H           7.4995    1.0180    0.0000 H       1  UNL1        0.0584
     55 H           4.9560   -2.3374    0.0000 H       1  UNL1        0.0255
     56 H           4.1091   -2.5643    0.0000 H       1  UNL1        0.0255
     57 H           4.3360   -3.4112    0.0000 H       1  UNL1        0.0255
     58 H          10.3791   -1.5643    0.0000 H       1  UNL1        0.2100
     59 H          10.3791   -0.1843    0.0000 H       1  UNL1        0.2100
     60 H           8.1101   -5.4943    0.0000 H       1  UNL1        0.2101
     61 H           5.8411   -6.1843    0.0000 H       1  UNL1        0.2100
     62 H           4.1091   -4.5643    0.0000 H       1  UNL1        0.2100
     63 H           8.9761    2.2457    0.0000 H       1  UNL1        0.2095
     64 H           6.0426   -0.0185    0.0000 H       1  UNL1        0.0691
     65 H           4.6032   -2.5116    0.0000 H       1  UNL1        0.0691
     66 H           4.2779    1.9889    0.0000 H       1  UNL1        0.0789
     67 H           2.6620    1.7678    0.0000 H       1  UNL1        0.0385
     68 H           2.2608    1.0790    0.0000 H       1  UNL1        0.0385
     69 H           2.8288   -2.4669    0.0000 H       1  UNL1        0.2922
     70 H           5.1473    2.8656    0.0000 H       1  UNL1        0.0623
     71 H           2.3414    2.8764    0.0000 H       1  UNL1        0.0623
     72 H           5.1535    4.4856    0.0000 H       1  UNL1        0.0654
     73 H           2.3476    4.4964    0.0000 H       1  UNL1        0.0654
     74 H           3.2031    6.7200    0.0000 H       1  UNL1        0.0660
     75 H           2.3553    6.4964    0.0000 H       1  UNL1        0.0660
     76 H           2.5790    5.6486    0.0000 H       1  UNL1        0.0660
@<TRIPOS>BOND
     1    15     1    1
     2    18     1    1
     3     2    19    1
     4     2    21    1
     5     3    18    1
     6     3    24    1
     7    19     4    1
     8     4    27    1
     9    16     5    1
    10     5    58    1
    11    17     6    1
    12     6    59    1
    13    20     7    1
    14     7    60    1
    15    22     8    1
    16     8    61    1
    17    23     9    1
    18     9    62    1
    19    10    25    1
    20    10    63    1
    21    11    30    1
    22    11    32    1
    23    12    33    1
    24    12    69    1
    25    13    35    2
    26    14    41    1
    27    14    42    1
    28    15    16    1
    29    15    19    1
    30    15    43    1
    31    16    17    1
    32    16    44    1
    33    17    21    1
    34    17    45    1
    35    18    20    1
    36    18    46    1
    37    19    47    1
    38    20    22    1
    39    20    48    1
    40    21    25    1
    41    21    49    1
    42    22    23    1
    43    22    50    1
    44    23    24    1
    45    23    51    1
    46    24    26    1
    47    24    52    1
    48    25    53    1
    49    25    54    1
    50    26    55    1
    51    26    56    1
    52    26    57    1
    53    27    28   ar
    54    27    29   ar
    55    28    30   ar
    56    28    64    1
    57    29    33   ar
    58    29    65    1
    59    30    31   ar
    60    31    33   ar
    61    31    35    1
    62    32    34    1
    63    32    36    1
    64    32    66    1
    65    34    35    1
    66    34    67    1
    67    34    68    1
    68    36    37   ar
    69    36    38   ar
    70    37    39   ar
    71    37    70    1
    72    38    40   ar
    73    38    71    1
    74    39    41   ar
    75    39    72    1
    76    40    41   ar
    77    40    73    1
    78    42    74    1
    79    42    75    1
    80    42    76    1
