@<TRIPOS>MOLECULE
IMPHY002531
 40 41 0 0 0
SMALL
GASTEIGER

@<TRIPOS>ATOM
      1 O           9.5312   -1.2914    0.0000 O.3     1  UNL1       -0.3915
      2 O           2.5369    0.7327    0.0000 O.3     1  UNL1       -0.4773
      3 O           3.4030   -0.7673    0.0000 O.2     1  UNL1       -0.2455
      4 C           6.8671   -0.7673    0.0000 C.3     1  UNL1       -0.0232
      5 C           6.8671    0.2327    0.0000 C.3     1  UNL1       -0.0140
      6 C           6.0010   -1.2673    0.0000 C.3     1  UNL1       -0.0464
      7 C           7.7610   -1.3020    0.0000 C.3     1  UNL1       -0.0206
      8 C           6.0010    0.7327    0.0000 C.3     1  UNL1       -0.0390
      9 C           5.1350    0.2327    0.0000 C.3     1  UNL1       -0.0091
     10 C           5.1350   -0.7673    0.0000 C.3     1  UNL1       -0.0455
     11 C           7.7610    0.7674    0.0000 C.2     1  UNL1       -0.0706
     12 C           8.6671   -0.7881    0.0000 C.3     1  UNL1        0.0594
     13 C           6.8671   -1.7673    0.0000 C.3     1  UNL1       -0.0589
     14 C           8.6671    0.2535    0.0000 C.3     1  UNL1       -0.0056
     15 C           4.2690    0.7327    0.0000 C.2     1  UNL1        0.0324
     16 C           7.7494    1.7673    0.0000 C.2     1  UNL1       -0.0991
     17 C           3.4030    0.2327    0.0000 C.2     1  UNL1        0.3325
     18 C           4.2690    1.7327    0.0000 C.2     1  UNL1       -0.0885
     19 H           6.8605    1.0827    0.0000 H       1  UNL1        0.0351
     20 H           5.6025   -1.7422    0.0000 H       1  UNL1        0.0271
     21 H           6.3996   -1.7422    0.0000 H       1  UNL1        0.0271
     22 H           7.3564   -1.7718    0.0000 H       1  UNL1        0.0296
     23 H           8.1546   -1.7810    0.0000 H       1  UNL1        0.0296
     24 H           6.3996    1.2076    0.0000 H       1  UNL1        0.0277
     25 H           5.6025    1.2076    0.0000 H       1  UNL1        0.0277
     26 H           5.1350    0.8527    0.0000 H       1  UNL1        0.0351
     27 H           4.5244   -0.6596    0.0000 H       1  UNL1        0.0271
     28 H           4.9230   -1.3499    0.0000 H       1  UNL1        0.0271
     29 H           8.6635   -1.4081    0.0000 H       1  UNL1        0.0596
     30 H           6.2471   -1.7673    0.0000 H       1  UNL1        0.0235
     31 H           6.8671   -2.3873    0.0000 H       1  UNL1        0.0235
     32 H           7.4871   -1.7673    0.0000 H       1  UNL1        0.0235
     33 H           9.2779    0.1474    0.0000 H       1  UNL1        0.0335
     34 H           8.8761    0.8372    0.0000 H       1  UNL1        0.0335
     35 H           8.2828    2.0835    0.0000 H       1  UNL1        0.0535
     36 H           7.2090    2.0711    0.0000 H       1  UNL1        0.0535
     37 H          10.0693   -0.9835    0.0000 H       1  UNL1        0.2098
     38 H           4.8059    2.0427    0.0000 H       1  UNL1        0.0540
     39 H           3.7320    2.0427    0.0000 H       1  UNL1        0.0540
     40 H           2.0000    0.4227    0.0000 H       1  UNL1        0.2954
@<TRIPOS>BOND
     1    12     1    1
     2     1    37    1
     3     2    17    1
     4     2    40    1
     5     3    17    2
     6     4     5    1
     7     4     6    1
     8     4     7    1
     9     4    13    1
    10     5     8    1
    11     5    11    1
    12     5    19    1
    13     6    10    1
    14     6    20    1
    15     6    21    1
    16     7    12    1
    17     7    22    1
    18     7    23    1
    19     8     9    1
    20     8    24    1
    21     8    25    1
    22     9    10    1
    23     9    15    1
    24     9    26    1
    25    10    27    1
    26    10    28    1
    27    11    14    1
    28    11    16    2
    29    12    14    1
    30    12    29    1
    31    13    30    1
    32    13    31    1
    33    13    32    1
    34    14    33    1
    35    14    34    1
    36    15    17    1
    37    15    18    2
    38    16    35    1
    39    16    36    1
    40    18    38    1
    41    18    39    1
