@<TRIPOS>MOLECULE
IMPHY006064
 174 174 0 0 0
SMALL
GASTEIGER

@<TRIPOS>ATOM
      1 O          11.1972    5.1900    0.0000 O.3     1  UNK1       -0.4580
      2 O           6.3671    4.5560    0.0000 O.2     1  UNK1       -0.2738
      3 O           9.4651    5.1900    0.0000 O.2     1  UNK1       -0.2736
      4 O          10.3311    4.6900    0.0000 O.2     1  UNK1       -0.2487
      5 O           4.2690    2.1900    0.0000 O.2     2  LEU2       -0.2738
      6 O          12.0632    2.6900    0.0000 O.2     1  UNK1       -0.2738
      7 O          11.1972   -0.8100    0.0000 O.2     1  UNK1       -0.2738
      8 O          10.3312   -3.3100    0.0000 O.3     0  UNK0       -0.3913
      9 O           8.5991    5.6900    0.0000 O.2     5  UNK5       -0.2737
     10 O           6.0010    8.1900    0.0000 O.2     4  LEU4       -0.2738
     11 O           3.4030    5.6900    0.0000 O.2     3  SER3       -0.2737
     12 O           8.5991    8.6900    0.0000 O.3     5  UNK5       -0.3927
     13 OG          2.5369    4.1900    0.0000 O.3     3  SER3       -0.3927
     14 O          11.1972   -1.8100    0.0000 O.2     0  UNK0       -0.2757
     15 O           9.4651   -1.8100    0.0000 O.3     1  UNK1       -0.4806
     16 O           8.5991   -0.3100    0.0000 O.2     1  UNK1       -0.2510
     17 N           8.5991    3.6900    0.0000 N.am    1  UNK1       -0.3021
     18 N           6.8671    2.6900    0.0000 N.am    2  LEU2       -0.3025
     19 N          10.3312    2.6900    0.0000 N.am    1  UNK1       -0.2995
     20 N           9.4651    7.1900    0.0000 N.am    5  UNK5       -0.3005
     21 N          12.0632    0.6900    0.0000 N.am    1  UNK1       -0.3025
     22 N           5.1350    3.6900    0.0000 N.am    3  SER3       -0.3006
     23 N          12.9292   -1.8100    0.0000 N.am    1  UNK1       -0.3039
     24 N           5.1350    5.6900    0.0000 N.am    4  LEU4       -0.3024
     25 N           6.8671    6.6900    0.0000 N.am    5  UNK5       -0.3006
     26 C           7.7331    4.1900    0.0000 C.3     1  UNK1        0.1017
     27 C          10.3312    3.6900    0.0000 C.3     1  UNK1        0.1364
     28 C           7.3911    5.1297    0.0000 C.3     1  UNK1       -0.0197
     29 C          11.1972    7.1900    0.0000 C.3     1  UNK1       -0.0153
     30 C          10.3312    6.6900    0.0000 C.3     1  UNK1        0.1230
     31 CA          6.0010    2.1900    0.0000 C.3     2  LEU2        0.0997
     32 C          11.1972    4.1900    0.0000 C.3     1  UNK1        0.1270
     33 CB          6.0010    1.1900    0.0000 C.3     2  LEU2       -0.0236
     34 CG          5.1350    0.6900    0.0000 C.3     2  LEU2       -0.0446
     35 C           6.8671    3.6900    0.0000 C.2     1  UNK1        0.2342
     36 C           9.4651    4.1900    0.0000 C.2     1  UNK1        0.2376
     37 C          11.1972    1.1900    0.0000 C.3     1  UNK1        0.0999
     38 C          12.9292   -0.8100    0.0000 C.3     1  UNK1        0.0996
     39 C          11.1972    8.1900    0.0000 C.3     1  UNK1       -0.0511
     40 C          13.7953   -0.3100    0.0000 C.3     1  UNK1       -0.0236
     41 CA          5.1350    6.6900    0.0000 C.3     4  LEU4        0.0997
     42 C          10.3312    5.6900    0.0000 C.2     1  UNK1        0.3282
     43 CB          4.2690    7.1900    0.0000 C.3     4  LEU4       -0.0236
     44 C          14.6613   -0.8100    0.0000 C.3     1  UNK1       -0.0446
     45 C           5.1350    2.6900    0.0000 C.2     2  LEU2        0.2340
     46 C          11.1972    2.1900    0.0000 C.2     1  UNK1        0.2340
     47 C           6.4063    5.3033    0.0000 C.3     1  UNK1       -0.0605
     48 C           8.0339    5.8957    0.0000 C.3     1  UNK1       -0.0605
     49 C          12.0632    6.6900    0.0000 C.3     1  UNK1       -0.0602
     50 CG          4.2690    8.1900    0.0000 C.3     4  LEU4       -0.0446
     51 C          12.0632    3.6900    0.0000 C.3     1  UNK1       -0.0254
     52 C          10.3312    0.6900    0.0000 C.3     1  UNK1       -0.0159
     53 C           7.7331    7.1900    0.0000 C.3     5  UNK5        0.1226
     54 CA          4.2690    4.1900    0.0000 C.3     3  SER3        0.1226
     55 C          12.0632   -0.3100    0.0000 C.2     1  UNK1        0.2340
     56 C           8.5991    6.6900    0.0000 C.2     5  UNK5        0.2363
     57 CD1         5.1350   -0.3100    0.0000 C.3     2  LEU2       -0.0626
     58 CD2         4.2690    1.1900    0.0000 C.3     2  LEU2       -0.0626
     59 C           6.0010    7.1900    0.0000 C.2     4  LEU4        0.2340
     60 C          11.1972   -3.8100    0.0000 C.3     0  UNK0        0.0635
     61 C          11.1972   -4.8100    0.0000 C.3     0  UNK0       -0.0264
     62 C          12.0632    8.6900    0.0000 C.3     1  UNK1       -0.0650
     63 C          12.0632   -3.3100    0.0000 C.3     0  UNK0        0.0499
     64 C          10.3312   -5.3100    0.0000 C.3     0  UNK0       -0.0507
     65 C           4.2690    5.1900    0.0000 C.2     3  SER3        0.2362
     66 C          10.3312   -6.3100    0.0000 C.3     0  UNK0       -0.0530
     67 C          15.5273   -0.3100    0.0000 C.3     1  UNK1       -0.0626
     68 C          14.6613   -1.8100    0.0000 C.3     1  UNK1       -0.0626
     69 C          10.3312   -0.3100    0.0000 C.3     1  UNK1        0.0469
     70 C          12.0632   -2.3100    0.0000 C.2     0  UNK0        0.2161
     71 CD1         3.4030    8.6900    0.0000 C.3     4  LEU4       -0.0626
     72 CD2         5.1350    8.6900    0.0000 C.3     4  LEU4       -0.0626
     73 C           7.7331    8.1900    0.0000 C.3     5  UNK5        0.0711
     74 CB          3.4030    3.6900    0.0000 C.3     3  SER3        0.0711
     75 C           9.4651   -6.8100    0.0000 C.3     0  UNK0       -0.0531
     76 C           9.4651   -7.8100    0.0000 C.3     0  UNK0       -0.0533
     77 C           8.5991   -8.3100    0.0000 C.3     0  UNK0       -0.0559
     78 C           9.4651   -0.8100    0.0000 C.2     1  UNK1        0.3048
     79 C           8.5991   -9.3100    0.0000 C.3     0  UNK0       -0.0653
     80 H           8.2080    4.5885    0.0000 H       1  UNK1        0.0597
     81 H          10.8681    3.3800    0.0000 H       1  UNK1        0.0632
     82 H           8.0016    5.0220    0.0000 H       1  UNK1        0.0318
     83 H          11.1972    6.5700    0.0000 H       1  UNK1        0.0321
     84 H          10.3312    7.5400    0.0000 H       1  UNK1        0.0617
     85 HA          6.5380    1.8800    0.0000 H       2  LEU2        0.0594
     86 H          11.7341    4.5000    0.0000 H       1  UNK1        0.0755
     87 HB1         6.2131    0.6074    0.0000 H       2  LEU2        0.0290
     88 HB2         6.6116    1.2977    0.0000 H       2  LEU2        0.0290
     89 HG          5.6720    0.3800    0.0000 H       2  LEU2        0.0296
     90 H           8.5991    3.0700    0.0000 H       1  UNK1        0.1495
     91 H          11.1972    0.5700    0.0000 H       1  UNK1        0.0595
     92 H           7.4040    2.3800    0.0000 H       2  LEU2        0.1495
     93 H          12.3923   -1.1200    0.0000 H       1  UNK1        0.0594
     94 H          10.9851    8.7726    0.0000 H       1  UNK1        0.0266
     95 H          10.5866    8.0823    0.0000 H       1  UNK1        0.0266
     96 H           9.7942    2.3800    0.0000 H       1  UNK1        0.1496
     97 H          14.1938    0.1649    0.0000 H       1  UNK1        0.0290
     98 H          13.3967    0.1649    0.0000 H       1  UNK1        0.0290
     99 HA          4.5981    6.3800    0.0000 H       4  LEU4        0.0594
    100 HB1         3.6584    7.2977    0.0000 H       4  LEU4        0.0290
    101 HB2         4.0569    6.6074    0.0000 H       4  LEU4        0.0290
    102 H          14.1244   -1.1200    0.0000 H       1  UNK1        0.0296
    103 H           9.4651    7.8100    0.0000 H       5  UNK5        0.1496
    104 H           6.5139    5.9139    0.0000 H       1  UNK1        0.0233
    105 H           5.7957    5.4110    0.0000 H       1  UNK1        0.0233
    106 H           6.2986    4.6928    0.0000 H       1  UNK1        0.0233
    107 H           8.5088    5.4972    0.0000 H       1  UNK1        0.0233
    108 H           8.4324    6.3707    0.0000 H       1  UNK1        0.0233
    109 H           7.5589    6.2943    0.0000 H       1  UNK1        0.0233
    110 H          11.7532    6.1531    0.0000 H       1  UNK1        0.0233
    111 H          12.6002    6.3800    0.0000 H       1  UNK1        0.0233
    112 H          12.3732    7.2269    0.0000 H       1  UNK1        0.0233
    113 HG          4.2690    8.8100    0.0000 H       4  LEU4        0.0296
    114 H          11.7532    3.1531    0.0000 H       1  UNK1        0.0266
    115 H          12.6002    3.3800    0.0000 H       1  UNK1        0.0266
    116 H          12.3732    4.2269    0.0000 H       1  UNK1        0.0266
    117 H          10.1191    1.2726    0.0000 H       1  UNK1        0.0293
    118 H           9.7206    0.5823    0.0000 H       1  UNK1        0.0293
    119 H           7.1962    7.5000    0.0000 H       5  UNK5        0.0618
    120 HA          4.2690    3.5700    0.0000 H       3  SER3        0.0618
    121 H          12.6002    1.0000    0.0000 H       1  UNK1        0.1495
    122 H           5.4450    4.2269    0.0000 H       3  SER3        0.1496
    123 HD11        4.5150   -0.3100    0.0000 H       2  LEU2        0.0232
    124 HD12        5.1350   -0.9300    0.0000 H       2  LEU2        0.0232
    125 HD13        5.7550   -0.3100    0.0000 H       2  LEU2        0.0232
    126 HD21        4.5790    1.7269    0.0000 H       2  LEU2        0.0232
    127 HD22        3.7320    1.5000    0.0000 H       2  LEU2        0.0232
    128 HD23        3.9590    0.6531    0.0000 H       2  LEU2        0.0232
    129 H          13.4662   -2.1200    0.0000 H       1  UNK1        0.1494
    130 H           5.6720    5.3800    0.0000 H       4  LEU4        0.1495
    131 H          10.6603   -4.1200    0.0000 H       0  UNK0        0.0598
    132 H          11.4092   -5.3926    0.0000 H       0  UNK0        0.0290
    133 H          11.8078   -4.7023    0.0000 H       0  UNK0        0.0290
    134 H          12.3732    8.1531    0.0000 H       1  UNK1        0.0230
    135 H          12.6002    9.0000    0.0000 H       1  UNK1        0.0230
    136 H          11.7532    9.2269    0.0000 H       1  UNK1        0.0230
    137 H          12.2753   -3.8926    0.0000 H       0  UNK0        0.0384
    138 H          12.6738   -3.2023    0.0000 H       0  UNK0        0.0384
    139 H          10.1191   -4.7274    0.0000 H       0  UNK0        0.0266
    140 H           9.7206   -5.4177    0.0000 H       0  UNK0        0.0266
    141 H           6.8671    6.0700    0.0000 H       5  UNK5        0.1496
    142 H          10.5432   -6.8926    0.0000 H       0  UNK0        0.0265
    143 H          10.9417   -6.2023    0.0000 H       0  UNK0        0.0265
    144 H          15.8373   -0.8469    0.0000 H       1  UNK1        0.0232
    145 H          16.0643    0.0000    0.0000 H       1  UNK1        0.0232
    146 H          15.2173    0.2269    0.0000 H       1  UNK1        0.0232
    147 H          14.0413   -1.8100    0.0000 H       1  UNK1        0.0232
    148 H          14.6613   -2.4300    0.0000 H       1  UNK1        0.0232
    149 H          15.2813   -1.8100    0.0000 H       1  UNK1        0.0232
    150 H          10.5432   -0.8926    0.0000 H       1  UNK1        0.0378
    151 H          10.9417   -0.2023    0.0000 H       1  UNK1        0.0378
    152 HD21        5.4450    8.1531    0.0000 H       4  LEU4        0.0232
    153 HD11        3.7130    9.2269    0.0000 H       4  LEU4        0.0232
    154 HD22        5.6720    9.0000    0.0000 H       4  LEU4        0.0232
    155 HD23        4.8250    9.2269    0.0000 H       4  LEU4        0.0232
    156 HD12        2.8660    9.0000    0.0000 H       4  LEU4        0.0232
    157 HD13        3.0930    8.1531    0.0000 H       4  LEU4        0.0232
    158 H           7.5210    8.7726    0.0000 H       5  UNK5        0.0580
    159 H           7.1225    8.0823    0.0000 H       5  UNK5        0.0580
    160 HB1         3.0044    3.2151    0.0000 H       3  SER3        0.0580
    161 HB2         3.8015    3.2151    0.0000 H       3  SER3        0.0580
    162 H           9.2531   -6.2274    0.0000 H       0  UNK0        0.0265
    163 H           8.8546   -6.9177    0.0000 H       0  UNK0        0.0265
    164 H           9.6772   -8.3926    0.0000 H       0  UNK0        0.0265
    165 H          10.0757   -7.7023    0.0000 H       0  UNK0        0.0265
    166 H           8.3871   -7.7274    0.0000 H       0  UNK0        0.0263
    167 H           7.9885   -8.4177    0.0000 H       0  UNK0        0.0263
    168 H           9.7942   -3.6200    0.0000 H       0  UNK0        0.2098
    169 H           8.5991    9.3100    0.0000 H       5  UNK5        0.2095
    170 H           2.0000    3.8800    0.0000 H       3  SER3        0.2095
    171 H           7.9791   -9.3100    0.0000 H       0  UNK0        0.0230
    172 H           8.5991   -9.9300    0.0000 H       0  UNK0        0.0230
    173 H           9.2191   -9.3100    0.0000 H       0  UNK0        0.0230
    174 H           8.9282   -2.1200    0.0000 H       1  UNK1        0.2951
@<TRIPOS>BOND
     1     1    32    1
     2     1    42    1
     3     2    35    2
     4     3    36    2
     5     4    42    2
     6     5    45    2
     7     6    46    2
     8     7    55    2
     9    60     8    1
    10     8   168    1
    11     9    56    2
    12    10    59    2
    13    11    65    2
    14    12    73    1
    15    12   169    1
    16    13    74    1
    17    13   170    1
    18    14    70    2
    19    15    78    1
    20    15   174    1
    21    16    78    2
    22    17    26    1
    23    17    36   am
    24    17    90    1
    25    18    31    1
    26    18    35   am
    27    18    92    1
    28    27    19    1
    29    19    46   am
    30    19    96    1
    31    20    30    1
    32    20    56   am
    33    20   103    1
    34    37    21    1
    35    21    55   am
    36    21   121    1
    37    22    45   am
    38    22    54    1
    39    22   122    1
    40    38    23    1
    41    23    70   am
    42    23   129    1
    43    24    41    1
    44    24    65   am
    45    24   130    1
    46    25    53    1
    47    25    59   am
    48    25   141    1
    49    26    28    1
    50    26    35    1
    51    26    80    1
    52    27    32    1
    53    27    36    1
    54    27    81    1
    55    28    47    1
    56    28    48    1
    57    28    82    1
    58    29    30    1
    59    29    39    1
    60    29    49    1
    61    29    83    1
    62    30    42    1
    63    30    84    1
    64    31    33    1
    65    31    45    1
    66    31    85    1
    67    32    51    1
    68    32    86    1
    69    33    34    1
    70    33    87    1
    71    33    88    1
    72    34    57    1
    73    34    58    1
    74    34    89    1
    75    37    46    1
    76    37    52    1
    77    37    91    1
    78    38    40    1
    79    38    55    1
    80    38    93    1
    81    39    62    1
    82    39    94    1
    83    39    95    1
    84    40    44    1
    85    40    97    1
    86    40    98    1
    87    41    43    1
    88    41    59    1
    89    41    99    1
    90    43    50    1
    91    43   100    1
    92    43   101    1
    93    44    67    1
    94    44    68    1
    95    44   102    1
    96    47   104    1
    97    47   105    1
    98    47   106    1
    99    48   107    1
   100    48   108    1
   101    48   109    1
   102    49   110    1
   103    49   111    1
   104    49   112    1
   105    50    71    1
   106    50    72    1
   107    50   113    1
   108    51   114    1
   109    51   115    1
   110    51   116    1
   111    52    69    1
   112    52   117    1
   113    52   118    1
   114    53    56    1
   115    53    73    1
   116    53   119    1
   117    54    65    1
   118    54    74    1
   119    54   120    1
   120    57   123    1
   121    57   124    1
   122    57   125    1
   123    58   126    1
   124    58   127    1
   125    58   128    1
   126    60    61    1
   127    60    63    1
   128    60   131    1
   129    61    64    1
   130    61   132    1
   131    61   133    1
   132    62   134    1
   133    62   135    1
   134    62   136    1
   135    63    70    1
   136    63   137    1
   137    63   138    1
   138    64    66    1
   139    64   139    1
   140    64   140    1
   141    66    75    1
   142    66   142    1
   143    66   143    1
   144    67   144    1
   145    67   145    1
   146    67   146    1
   147    68   147    1
   148    68   148    1
   149    68   149    1
   150    69    78    1
   151    69   150    1
   152    69   151    1
   153    71   153    1
   154    71   156    1
   155    71   157    1
   156    72   152    1
   157    72   154    1
   158    72   155    1
   159    73   158    1
   160    73   159    1
   161    74   160    1
   162    74   161    1
   163    75    76    1
   164    75   162    1
   165    75   163    1
   166    76    77    1
   167    76   164    1
   168    76   165    1
   169    77    79    1
   170    77   166    1
   171    77   167    1
   172    79   171    1
   173    79   172    1
   174    79   173    1
