@<TRIPOS>MOLECULE
IMPHY002393
 43 46 0 0 0
SMALL
GASTEIGER

@<TRIPOS>ATOM
      1 O        2717.8600 2566.3500    0.0000 O.3     1  UNL1       -0.4557
      2 C        2717.8600 2606.3700    0.0000 C.2     1  UNL1        0.3168
      3 C        2683.1900 2626.3300    0.0000 C.3     1  UNL1        0.1096
      4 C        2648.6300 2606.3700    0.0000 C.3     1  UNL1        0.0116
      5 C        2613.9700 2626.3300    0.0000 C.3     1  UNL1        0.0006
      6 C        2579.3100 2606.3700    0.0000 C.3     1  UNL1        0.0000
      7 C        2544.6400 2626.3300    0.0000 C.3     1  UNL1        0.0000
      8 C        2510.0800 2606.3700    0.0000 C.3     1  UNL1        0.0000
      9 C        2475.4200 2626.3300    0.0000 C.3     1  UNL1        0.0000
     10 C        2440.7600 2606.3700    0.0000 C.3     1  UNL1        0.0000
     11 C        2406.0900 2626.3300    0.0000 C.3     1  UNL1        0.0000
     12 C        2371.5300 2606.3700    0.0000 C.3     1  UNL1        0.0000
     13 C        2336.8700 2626.3300    0.0000 C.3     1  UNL1        0.0000
     14 C        2302.2100 2606.3700    0.0000 C.3     1  UNL1        0.0000
     15 C        2267.5400 2626.3300    0.0000 C.3     1  UNL1        0.0000
     16 C        2232.9800 2606.3700    0.0000 C.3     1  UNL1        0.0000
     17 C        2198.3200 2626.3300    0.0000 C.3     1  UNL1        0.0000
     18 O        2752.5200 2626.3300    0.0000 O.2     1  UNL1       -0.2501
     19 C        2697.8900 2531.6800    0.0000 C.3     1  UNL1        0.1387
     20 C        2697.8900 2491.4600    0.0000 C.3     1  UNL1        0.0489
     21 C        2732.3600 2511.6200    0.0000 C.3     1  UNL1        0.0678
     22 C        2767.0200 2531.5800    0.0000 C.3     1  UNL1        0.1854
     23 O        2801.6800 2511.6200    0.0000 O.3     1  UNL1       -0.2203
     24 C        2752.3200 2476.9600    0.0000 C.3     1  UNL1        0.0062
     25 C        2663.3300 2471.3000    0.0000 C.3     1  UNL1        0.0534
     26 C        2628.8700 2491.4600    0.0000 C.3     1  UNL1        0.1367
     27 C        2628.8700 2531.6800    0.0000 C.3     1  UNL1        0.0322
     28 C        2663.3300 2551.8400    0.0000 C.3     1  UNL1        0.0427
     29 C        2594.2000 2551.7500    0.0000 C.3     1  UNL1        0.0027
     30 O        2628.8700 2451.4300    0.0000 O.3     1  UNL1       -0.2249
     31 C        2594.3000 2471.3000    0.0000 C.3     1  UNL1        0.0855
     32 C        2594.3000 2431.0700    0.0000 C.3     1  UNL1        0.1903
     33 C        2608.7000 2393.7300    0.0000 C.3     1  UNL1        0.0626
     34 C        2648.9300 2393.7300    0.0000 C.2     1  UNL1       -0.0129
     35 C        2663.3300 2431.0700    0.0000 C.2     1  UNL1       -0.0298
     36 C        2683.5900 2373.6700    0.0000 C.3     1  UNL1        0.2042
     37 O        2718.2500 2393.7300    0.0000 O.3     1  UNL1       -0.2155
     38 O        2594.3000 2381.6100    0.0000 O.3     1  UNL1       -0.2170
     39 C        2525.3800 2431.0700    0.0000 C.2     1  UNL1        0.1968
     40 C        2525.3800 2471.3000    0.0000 C.2     1  UNL1        0.0112
     41 C        2559.8400 2491.4600    0.0000 C.2     1  UNL1       -0.0224
     42 C        2490.7100 2491.3600    0.0000 C.3     1  UNL1        0.0338
     43 O        2497.0700 2402.7700    0.0000 O.2     1  UNL1       -0.2891
@<TRIPOS>BOND
     1     1     2    1
     2     2     3    1
     3     2    18    2
     4     3     4    1
     5     4     5    1
     6     5     6    1
     7     6     7    1
     8     7     8    1
     9     8     9    1
    10     9    10    1
    11    10    11    1
    12    11    12    1
    13    12    13    1
    14    13    14    1
    15    14    15    1
    16    15    16    1
    17    16    17    1
    18    19     1    1
    19    19    21    1
    20    19    28    1
    21    20    19    1
    22    20    21    1
    23    20    25    1
    24    21    22    1
    25    21    24    1
    26    22    23    1
    27    25    26    1
    28    25    35    1
    29    26    30    1
    30    26    31    1
    31    27    26    1
    32    27    29    1
    33    28    27    1
    34    31    32    1
    35    31    41    1
    36    32    33    1
    37    32    38    1
    38    32    39    1
    39    34    33    1
    40    34    36    1
    41    35    34    2
    42    36    37    1
    43    39    40    1
    44    39    43    2
    45    40    42    1
    46    41    40    2
