@<TRIPOS>MOLECULE
IMPHY006578
 128 133 0 0 0
SMALL
GASTEIGER

@<TRIPOS>ATOM
      1 O          10.3312   -4.6599    0.0000 O.3     1  UNL1       -0.3446
      2 O           8.5538    4.7347    0.0000 O.3     1  UNL1       -0.3891
      3 O          10.8162    6.1064    0.0000 O.3     1  UNL1       -0.3864
      4 O           8.5991   -4.6599    0.0000 O.3     1  UNL1       -0.3405
      5 O           8.4970    7.3799    0.0000 O.3     1  UNL1       -0.3865
      6 O          10.3312   -6.6599    0.0000 O.3     1  UNL1       -0.3841
      7 O           8.5991   -7.6599    0.0000 O.3     1  UNL1       -0.3864
      8 O           6.8671   -6.6599    0.0000 O.3     1  UNL1       -0.3865
      9 O           6.0010   -5.1599    0.0000 O.3     1  UNL1       -0.3460
     10 O           4.2690   -5.1599    0.0000 O.3     1  UNL1       -0.3405
     11 O           6.0010   -3.1599    0.0000 O.3     1  UNL1       -0.3841
     12 O           4.2690   -2.1599    0.0000 O.3     1  UNL1       -0.3864
     13 O           2.5369   -3.1599    0.0000 O.3     1  UNL1       -0.3865
     14 O           2.5369   -6.1599    0.0000 O.3     1  UNL1       -0.3924
     15 C          11.2284    1.0403    0.0000 C.3     1  UNL1       -0.0228
     16 C          10.3604    1.5369    0.0000 C.3     1  UNL1       -0.0233
     17 C          11.2322    0.0403    0.0000 C.3     1  UNL1       -0.0257
     18 C          10.3681   -0.4630    0.0000 C.3     1  UNL1       -0.0219
     19 C          10.5659    2.5096    0.0000 C.3     1  UNL1       -0.0324
     20 C           9.4963    1.0336    0.0000 C.3     1  UNL1       -0.0463
     21 C          11.9628    1.7102    0.0000 C.3     1  UNL1       -0.0466
     22 C           9.5002    0.0336    0.0000 C.3     1  UNL1       -0.0463
     23 C          10.3561   -1.5046    0.0000 C.3     1  UNL1       -0.0136
     24 C          11.5542    2.6164    0.0000 C.3     1  UNL1       -0.0489
     25 C          12.1442   -0.4630    0.0000 C.3     1  UNL1       -0.0306
     26 C          12.0963    0.5436    0.0000 C.3     1  UNL1       -0.0588
     27 C           9.4925    2.0336    0.0000 C.3     1  UNL1       -0.0588
     28 C           9.8952    3.2513    0.0000 C.3     1  UNL1       -0.0381
     29 C          11.2562   -2.0289    0.0000 C.2     1  UNL1       -0.0617
     30 C           9.5040   -0.9664    0.0000 C.3     1  UNL1       -0.0587
     31 C           9.4062   -2.0289    0.0000 C.3     1  UNL1       -0.0436
     32 C          12.1562   -1.5046    0.0000 C.2     1  UNL1       -0.0836
     33 C          11.2687   -3.1138    0.0000 C.3     1  UNL1        0.0127
     34 C           9.3936   -3.1138    0.0000 C.3     1  UNL1       -0.0251
     35 C          10.3312   -3.6599    0.0000 C.3     1  UNL1        0.0706
     36 C          10.2022    4.2030    0.0000 C.3     1  UNL1       -0.0215
     37 C           8.9175    3.0413    0.0000 C.3     1  UNL1       -0.0621
     38 C          12.2687   -3.1061    0.0000 C.3     1  UNL1       -0.0537
     39 C          11.7754   -3.9760    0.0000 C.3     1  UNL1       -0.0537
     40 C           9.5315    4.9447    0.0000 C.3     1  UNL1        0.0840
     41 C           9.8385    5.8964    0.0000 C.3     1  UNL1        0.1091
     42 C           9.4651   -5.1599    0.0000 C.3     1  UNL1        0.1882
     43 C           9.1678    6.6382    0.0000 C.3     1  UNL1        0.0887
     44 C           9.4651   -6.1599    0.0000 C.3     1  UNL1        0.1341
     45 C           8.5991   -6.6599    0.0000 C.3     1  UNL1        0.1141
     46 C           9.9095    7.3088    0.0000 C.3     1  UNL1       -0.0338
     47 C           8.4260    5.9674    0.0000 C.3     1  UNL1       -0.0338
     48 C           7.7331   -5.1599    0.0000 C.3     1  UNL1        0.1134
     49 C           7.7331   -6.1599    0.0000 C.3     1  UNL1        0.1119
     50 C           6.8671   -4.6599    0.0000 C.3     1  UNL1        0.0796
     51 C           5.1350   -4.6599    0.0000 C.3     1  UNL1        0.1880
     52 C           5.1350   -3.6599    0.0000 C.3     1  UNL1        0.1341
     53 C           4.2690   -3.1599    0.0000 C.3     1  UNL1        0.1141
     54 C           3.4030   -4.6599    0.0000 C.3     1  UNL1        0.1130
     55 C           3.4030   -3.6599    0.0000 C.3     1  UNL1        0.1119
     56 C           2.5369   -5.1599    0.0000 C.3     1  UNL1        0.0730
     57 H          11.9634    0.4738    0.0000 H       1  UNL1        0.0315
     58 H          10.8685    3.3039    0.0000 H       1  UNL1        0.0309
     59 H           9.2820    1.6154    0.0000 H       1  UNL1        0.0271
     60 H           8.8862    0.9236    0.0000 H       1  UNL1        0.0271
     61 H          12.3302    1.2108    0.0000 H       1  UNL1        0.0271
     62 H          12.4981    2.0230    0.0000 H       1  UNL1        0.0271
     63 H           8.8892    0.1389    0.0000 H       1  UNL1        0.0271
     64 H           9.2904   -0.5498    0.0000 H       1  UNL1        0.0271
     65 H          11.0955   -1.0853    0.0000 H       1  UNL1        0.0351
     66 H          12.1431    2.8105    0.0000 H       1  UNL1        0.0268
     67 H          11.4231    3.2224    0.0000 H       1  UNL1        0.0268
     68 H          12.7562   -0.5621    0.0000 H       1  UNL1        0.0310
     69 H          12.3465    0.1230    0.0000 H       1  UNL1        0.0310
     70 H          11.7884    0.0055    0.0000 H       1  UNL1        0.0235
     71 H          12.6344    0.2357    0.0000 H       1  UNL1        0.0235
     72 H          12.4042    1.0818    0.0000 H       1  UNL1        0.0235
     73 H           9.8004    2.5717    0.0000 H       1  UNL1        0.0235
     74 H           8.9544    2.3415    0.0000 H       1  UNL1        0.0235
     75 H           9.1846    1.4955    0.0000 H       1  UNL1        0.0235
     76 H           9.4793    3.7112    0.0000 H       1  UNL1        0.0302
     77 H           9.1920   -0.4306    0.0000 H       1  UNL1        0.0235
     78 H           8.9683   -1.2784    0.0000 H       1  UNL1        0.0235
     79 H           9.8161   -1.5021    0.0000 H       1  UNL1        0.0235
     80 H           9.2039   -1.4428    0.0000 H       1  UNL1        0.0272
     81 H           8.7941   -2.1279    0.0000 H       1  UNL1        0.0272
     82 H          12.6955   -1.8104    0.0000 H       1  UNL1        0.0572
     83 H           8.7840   -3.0007    0.0000 H       1  UNL1        0.0291
     84 H           9.1778   -3.6950    0.0000 H       1  UNL1        0.0291
     85 H          10.8687   -3.9689    0.0000 H       1  UNL1        0.0605
     86 H          10.7502    3.9131    0.0000 H       1  UNL1        0.0294
     87 H          10.5828    4.6924    0.0000 H       1  UNL1        0.0294
     88 H           8.7873    3.6475    0.0000 H       1  UNL1        0.0233
     89 H           8.3113    2.9111    0.0000 H       1  UNL1        0.0233
     90 H           9.0477    2.4351    0.0000 H       1  UNL1        0.0233
     91 H          12.2734   -3.7261    0.0000 H       1  UNL1        0.0239
     92 H          12.8887   -3.1013    0.0000 H       1  UNL1        0.0239
     93 H          12.2639   -2.4861    0.0000 H       1  UNL1        0.0239
     94 H          11.2408   -4.2901    0.0000 H       1  UNL1        0.0239
     95 H          12.0895   -4.5105    0.0000 H       1  UNL1        0.0239
     96 H          12.3099   -3.6618    0.0000 H       1  UNL1        0.0239
     97 H           9.3411    4.3546    0.0000 H       1  UNL1        0.0620
     98 H          10.2543    5.4366    0.0000 H       1  UNL1        0.0648
     99 H          10.0021   -5.4699    0.0000 H       1  UNL1        0.0937
    100 H           8.1379    5.1946    0.0000 H       1  UNL1        0.2099
    101 H           9.4651   -6.7799    0.0000 H       1  UNL1        0.0671
    102 H          11.0065    6.6965    0.0000 H       1  UNL1        0.2100
    103 H           8.0622   -6.9699    0.0000 H       1  UNL1        0.0648
    104 H          10.3253    6.8490    0.0000 H       1  UNL1        0.0258
    105 H          10.3693    7.7247    0.0000 H       1  UNL1        0.0258
    106 H           9.4936    7.7687    0.0000 H       1  UNL1        0.0258
    107 H           8.0102    6.4273    0.0000 H       1  UNL1        0.0258
    108 H           7.9662    5.5516    0.0000 H       1  UNL1        0.0258
    109 H           8.8419    5.5076    0.0000 H       1  UNL1        0.0258
    110 H           7.7331   -4.5399    0.0000 H       1  UNL1        0.0647
    111 H           7.1962   -5.8499    0.0000 H       1  UNL1        0.0647
    112 H           8.6874    7.9699    0.0000 H       1  UNL1        0.2102
    113 H          10.3312   -7.2799    0.0000 H       1  UNL1        0.2101
    114 H           7.2656   -4.1850    0.0000 H       1  UNL1        0.0587
    115 H           6.4685   -4.1850    0.0000 H       1  UNL1        0.0587
    116 H           8.0622   -7.9699    0.0000 H       1  UNL1        0.2100
    117 H           6.8671   -7.2799    0.0000 H       1  UNL1        0.2100
    118 H           5.1350   -5.2799    0.0000 H       1  UNL1        0.0937
    119 H           5.1350   -3.0399    0.0000 H       1  UNL1        0.0671
    120 H           3.7320   -2.8499    0.0000 H       1  UNL1        0.0648
    121 H           3.4030   -5.2799    0.0000 H       1  UNL1        0.0647
    122 H           3.9650   -3.0399    0.0000 H       1  UNL1        0.0647
    123 H           6.0010   -2.5399    0.0000 H       1  UNL1        0.2101
    124 H           2.3249   -4.5773    0.0000 H       1  UNL1        0.0584
    125 H           1.9264   -5.2676    0.0000 H       1  UNL1        0.0584
    126 H           3.7320   -1.8499    0.0000 H       1  UNL1        0.2100
    127 H           2.0000   -3.4699    0.0000 H       1  UNL1        0.2100
    128 H           2.0000   -6.4699    0.0000 H       1  UNL1        0.2095
@<TRIPOS>BOND
     1    35     1    1
     2    42     1    1
     3     2    40    1
     4     2   100    1
     5     3    41    1
     6     3   102    1
     7     4    42    1
     8     4    48    1
     9     5    43    1
    10     5   112    1
    11    44     6    1
    12     6   113    1
    13    45     7    1
    14     7   116    1
    15    49     8    1
    16     8   117    1
    17     9    50    1
    18    51     9    1
    19    10    51    1
    20    10    54    1
    21    52    11    1
    22    11   123    1
    23    53    12    1
    24    12   126    1
    25    55    13    1
    26    13   127    1
    27    14    56    1
    28    14   128    1
    29    15    16    1
    30    15    17    1
    31    15    21    1
    32    15    26    1
    33    16    19    1
    34    16    20    1
    35    16    27    1
    36    17    18    1
    37    17    25    1
    38    17    57    1
    39    18    22    1
    40    18    23    1
    41    18    30    1
    42    19    24    1
    43    19    28    1
    44    19    58    1
    45    20    22    1
    46    20    59    1
    47    20    60    1
    48    21    24    1
    49    21    61    1
    50    21    62    1
    51    22    63    1
    52    22    64    1
    53    23    29    1
    54    23    31    1
    55    23    65    1
    56    24    66    1
    57    24    67    1
    58    25    32    1
    59    25    68    1
    60    25    69    1
    61    26    70    1
    62    26    71    1
    63    26    72    1
    64    27    73    1
    65    27    74    1
    66    27    75    1
    67    28    36    1
    68    28    37    1
    69    28    76    1
    70    29    32    2
    71    29    33    1
    72    30    77    1
    73    30    78    1
    74    30    79    1
    75    31    34    1
    76    31    80    1
    77    31    81    1
    78    32    82    1
    79    33    35    1
    80    33    38    1
    81    33    39    1
    82    34    35    1
    83    34    83    1
    84    34    84    1
    85    35    85    1
    86    36    40    1
    87    36    86    1
    88    36    87    1
    89    37    88    1
    90    37    89    1
    91    37    90    1
    92    38    91    1
    93    38    92    1
    94    38    93    1
    95    39    94    1
    96    39    95    1
    97    39    96    1
    98    40    41    1
    99    40    97    1
   100    41    43    1
   101    41    98    1
   102    42    44    1
   103    42    99    1
   104    43    46    1
   105    43    47    1
   106    44    45    1
   107    44   101    1
   108    45    49    1
   109    45   103    1
   110    46   104    1
   111    46   105    1
   112    46   106    1
   113    47   107    1
   114    47   108    1
   115    47   109    1
   116    48    49    1
   117    48    50    1
   118    48   110    1
   119    49   111    1
   120    50   114    1
   121    50   115    1
   122    51    52    1
   123    51   118    1
   124    52    53    1
   125    52   119    1
   126    53    55    1
   127    53   120    1
   128    54    55    1
   129    54    56    1
   130    54   121    1
   131    55   122    1
   132    56   124    1
   133    56   125    1
