@<TRIPOS>MOLECULE
IMPHY000231
 49 55 0 0 0
SMALL
GASTEIGER

@<TRIPOS>ATOM
      1 O           7.5328   -0.6980    0.0000 O.3     1  UNL1       -0.3908
      2 O           7.2254    2.3096    0.0000 O.3     1  UNL1       -0.3908
      3 O           3.8020   -2.3775    0.0000 O.2     1  UNL1       -0.2974
      4 N           3.8941    1.6300    0.0000 N.3     1  UNL1       -0.2947
      5 C           4.7882    0.0813    0.0000 C.3     1  UNL1        0.0038
      6 C           5.2018    0.6434    0.0000 C.3     1  UNL1       -0.0118
      7 C           4.7882    1.1138    0.0000 C.3     1  UNL1        0.0231
      8 C           5.5954   -0.5624    0.0000 C.3     1  UNL1       -0.0002
      9 C           3.8941   -0.4349    0.0000 C.3     1  UNL1       -0.0106
     10 C           5.5954    1.7575    0.0000 C.3     1  UNL1        0.0082
     11 C           3.5500    0.6205    0.0000 C.3     1  UNL1        0.0152
     12 C           4.2153    0.8499    0.0000 C.3     1  UNL1       -0.0303
     13 C           3.0000    0.0813    0.0000 C.3     1  UNL1       -0.0078
     14 C           6.6019   -0.3326    0.0000 C.3     1  UNL1        0.0680
     15 C           3.0000    1.1138    0.0000 C.3     1  UNL1        0.0056
     16 C           6.6019    1.5277    0.0000 C.3     1  UNL1        0.0688
     17 C           4.7889   -0.9396    0.0000 C.3     1  UNL1        0.0136
     18 C           7.0499    0.5976    0.0000 C.3     1  UNL1        0.0325
     19 C           5.7295    1.1482    0.0000 C.3     1  UNL1       -0.0251
     20 C           2.9993   -0.8478    0.0000 C.3     1  UNL1        0.0127
     21 C           6.5096    1.1482    0.0000 C.2     1  UNL1       -0.0681
     22 C           3.8060   -1.3775    0.0000 C.2     1  UNL1        0.1345
     23 C           2.0000    0.0817    0.0000 C.3     1  UNL1       -0.0577
     24 C           6.6309    2.1408    0.0000 C.2     1  UNL1       -0.0990
     25 H           4.6479    1.9521    0.0000 H       1  UNL1        0.0472
     26 H           5.5910   -1.4123    0.0000 H       1  UNL1        0.0337
     27 H           4.3244   -1.1679    0.0000 H       1  UNL1        0.0328
     28 H           5.5923    2.6075    0.0000 H       1  UNL1        0.0347
     29 H           2.7000    0.6262    0.0000 H       1  UNL1        0.0466
     30 H           4.5396    1.3783    0.0000 H       1  UNL1        0.0286
     31 H           4.2542    0.2312    0.0000 H       1  UNL1        0.0286
     32 H           6.6943   -0.9457    0.0000 H       1  UNL1        0.0603
     33 H           2.7880    1.6964    0.0000 H       1  UNL1        0.0432
     34 H           2.3894    1.0061    0.0000 H       1  UNL1        0.0432
     35 H           7.2180    1.4583    0.0000 H       1  UNL1        0.0603
     36 H           4.9600   -1.5355    0.0000 H       1  UNL1        0.0348
     37 H           5.4028   -0.8530    0.0000 H       1  UNL1        0.0348
     38 H           7.8999    0.5976    0.0000 H       1  UNL1        0.0396
     39 H           5.8944    1.7459    0.0000 H       1  UNL1        0.0316
     40 H           5.1972    1.4661    0.0000 H       1  UNL1        0.0316
     41 H           2.3910   -0.7282    0.0000 H       1  UNL1        0.0347
     42 H           2.7650   -1.4218    0.0000 H       1  UNL1        0.0347
     43 H           2.0002    0.7017    0.0000 H       1  UNL1        0.0236
     44 H           1.3800    0.0819    0.0000 H       1  UNL1        0.0236
     45 H           1.9998   -0.5383    0.0000 H       1  UNL1        0.0236
     46 H           7.6252   -1.3110    0.0000 H       1  UNL1        0.2098
     47 H           7.8385    2.2172    0.0000 H       1  UNL1        0.2098
     48 H           7.2015    2.3833    0.0000 H       1  UNL1        0.0535
     49 H           6.1356    2.5137    0.0000 H       1  UNL1        0.0535
@<TRIPOS>BOND
     1    14     1    1
     2     1    46    1
     3     2    16    1
     4     2    47    1
     5     3    22    2
     6     4     7    1
     7     4    11    1
     8     4    15    1
     9     5     7    1
    10     5     8    1
    11     5     9    1
    12     5    17    1
    13     6     8    1
    14     6    10    1
    15     6    12    1
    16     6    19    1
    17     7    10    1
    18     7    25    1
    19     8    14    1
    20     8    26    1
    21     9    11    1
    22     9    13    1
    23     9    27    1
    24    10    16    1
    25    10    28    1
    26    11    12    1
    27    11    29    1
    28    12    30    1
    29    12    31    1
    30    13    15    1
    31    13    20    1
    32    13    23    1
    33    14    18    1
    34    14    32    1
    35    15    33    1
    36    15    34    1
    37    16    18    1
    38    16    35    1
    39    17    22    1
    40    17    36    1
    41    17    37    1
    42    18    21    1
    43    18    38    1
    44    19    21    1
    45    19    39    1
    46    19    40    1
    47    20    22    1
    48    20    41    1
    49    20    42    1
    50    21    24    2
    51    23    43    1
    52    23    44    1
    53    23    45    1
    54    24    48    1
    55    24    49    1
