@<TRIPOS>MOLECULE
IMPHY004310
 46 47 0 0 0
SMALL
GASTEIGER

@<TRIPOS>ATOM
      1 O           2.8660    0.2500    0.0000 O.3     1  UNL1       -0.3793
      2 O           3.7320    1.7500    0.0000 O.2     1  UNL1       -0.2973
      3 C           3.7320   -0.2500    0.0000 C.3     1  UNL1        0.0653
      4 C           3.7320   -1.2500    0.0000 C.3     1  UNL1       -0.0222
      5 C           4.5981    0.2500    0.0000 C.3     1  UNL1        0.0321
      6 C           2.8660   -1.7500    0.0000 C.3     1  UNL1       -0.0253
      7 C           4.5981    1.2500    0.0000 C.2     1  UNL1        0.1361
      8 C           5.4641    1.7500    0.0000 C.3     1  UNL1        0.0099
      9 C           2.8660   -2.7500    0.0000 C.ar    1  UNL1       -0.0473
     10 C           5.4641    2.7500    0.0000 C.3     1  UNL1       -0.0210
     11 C           6.3301    3.2500    0.0000 C.ar    1  UNL1       -0.0470
     12 C           2.0000   -3.2500    0.0000 C.ar    1  UNL1       -0.0586
     13 C           3.7320   -3.2500    0.0000 C.ar    1  UNL1       -0.0586
     14 C           2.8660    1.2500    0.0000 C.3     1  UNL1        0.0368
     15 C           7.1962    2.7500    0.0000 C.ar    1  UNL1       -0.0586
     16 C           6.3301    4.2500    0.0000 C.ar    1  UNL1       -0.0586
     17 C           2.0000   -4.2500    0.0000 C.ar    1  UNL1       -0.0615
     18 C           3.7320   -4.2500    0.0000 C.ar    1  UNL1       -0.0615
     19 C           2.8660   -4.7500    0.0000 C.ar    1  UNL1       -0.0617
     20 C           8.0622    3.2500    0.0000 C.ar    1  UNL1       -0.0615
     21 C           7.1962    4.7500    0.0000 C.ar    1  UNL1       -0.0615
     22 C           8.0622    4.2500    0.0000 C.ar    1  UNL1       -0.0617
     23 H           3.7320    0.6000    0.0000 H       1  UNL1        0.0600
     24 H           3.9441   -1.8326    0.0000 H       1  UNL1        0.0293
     25 H           4.3426   -1.1423    0.0000 H       1  UNL1        0.0293
     26 H           4.8101   -0.3326    0.0000 H       1  UNL1        0.0367
     27 H           5.2087    0.3577    0.0000 H       1  UNL1        0.0367
     28 H           2.6540   -1.1674    0.0000 H       1  UNL1        0.0314
     29 H           2.2554   -1.8577    0.0000 H       1  UNL1        0.0314
     30 H           5.6762    1.1674    0.0000 H       1  UNL1        0.0345
     31 H           6.0747    1.8577    0.0000 H       1  UNL1        0.0345
     32 H           5.2520    3.3326    0.0000 H       1  UNL1        0.0317
     33 H           4.8535    2.6423    0.0000 H       1  UNL1        0.0317
     34 H           1.4631   -2.9400    0.0000 H       1  UNL1        0.0620
     35 H           4.2690   -2.9400    0.0000 H       1  UNL1        0.0620
     36 H           3.4860    1.2500    0.0000 H       1  UNL1        0.0524
     37 H           2.8660    1.8700    0.0000 H       1  UNL1        0.0524
     38 H           2.2460    1.2500    0.0000 H       1  UNL1        0.0524
     39 H           7.1962    2.1300    0.0000 H       1  UNL1        0.0620
     40 H           5.7932    4.5600    0.0000 H       1  UNL1        0.0620
     41 H           1.4631   -4.5600    0.0000 H       1  UNL1        0.0618
     42 H           4.2690   -4.5600    0.0000 H       1  UNL1        0.0618
     43 H           2.8660   -5.3700    0.0000 H       1  UNL1        0.0618
     44 H           8.5991    2.9400    0.0000 H       1  UNL1        0.0618
     45 H           7.1962    5.3700    0.0000 H       1  UNL1        0.0618
     46 H           8.5991    4.5600    0.0000 H       1  UNL1        0.0618
@<TRIPOS>BOND
     1     1     3    1
     2     1    14    1
     3     2     7    2
     4     3     4    1
     5     3     5    1
     6     3    23    1
     7     4     6    1
     8     4    24    1
     9     4    25    1
    10     5     7    1
    11     5    26    1
    12     5    27    1
    13     6     9    1
    14     6    28    1
    15     6    29    1
    16     7     8    1
    17     8    10    1
    18     8    30    1
    19     8    31    1
    20     9    12   ar
    21     9    13   ar
    22    10    11    1
    23    10    32    1
    24    10    33    1
    25    11    15   ar
    26    11    16   ar
    27    12    17   ar
    28    12    34    1
    29    13    18   ar
    30    13    35    1
    31    14    36    1
    32    14    37    1
    33    14    38    1
    34    15    20   ar
    35    15    39    1
    36    16    21   ar
    37    16    40    1
    38    17    19   ar
    39    17    41    1
    40    18    19   ar
    41    18    42    1
    42    19    43    1
    43    20    22   ar
    44    20    44    1
    45    21    22   ar
    46    21    45    1
    47    22    46    1
