@<TRIPOS>MOLECULE
IMPHY000781
 29 30 0 0 0
SMALL
GASTEIGER

@<TRIPOS>ATOM
      1 O           2.0000   -0.7927    0.0000 O.3     1  UNL1       -0.4914
      2 O           2.0000    1.2073    0.0000 O.3     1  UNL1       -0.5033
      3 N           6.3981   -0.3135    0.0000 N.3     1  UNL1       -0.3092
      4 C           5.4920   -0.8274    0.0000 C.3     1  UNL1        0.0304
      5 C           4.5981   -0.2927    0.0000 C.ar    1  UNL1       -0.0239
      6 C           4.5981    0.7073    0.0000 C.ar    1  UNL1       -0.0378
      7 C           5.4920    1.2420    0.0000 C.3     1  UNL1       -0.0147
      8 C           6.3981    0.7281    0.0000 C.3     1  UNL1        0.0004
      9 C           5.4804   -1.8273    0.0000 C.3     1  UNL1       -0.0455
     10 C           3.7320   -0.7927    0.0000 C.ar    1  UNL1       -0.0114
     11 C           3.7320    1.2073    0.0000 C.ar    1  UNL1       -0.0130
     12 C           2.8660   -0.2927    0.0000 C.ar    1  UNL1        0.1616
     13 C           2.8660    0.7073    0.0000 C.ar    1  UNL1        0.1587
     14 C           2.0000   -1.7927    0.0000 C.3     1  UNL1        0.0790
     15 H           6.0259   -1.1425    0.0000 H       1  UNL1        0.0507
     16 H           5.8856    1.7210    0.0000 H       1  UNL1        0.0326
     17 H           5.0874    1.7118    0.0000 H       1  UNL1        0.0326
     18 H           7.0089    0.6220    0.0000 H       1  UNL1        0.0427
     19 H           6.6071    1.3118    0.0000 H       1  UNL1        0.0427
     20 H           6.9338   -0.6256    0.0000 H       1  UNL1        0.1225
     21 H           4.8605   -1.8201    0.0000 H       1  UNL1        0.0248
     22 H           5.4733   -2.4473    0.0000 H       1  UNL1        0.0248
     23 H           6.1004   -1.8345    0.0000 H       1  UNL1        0.0248
     24 H           3.7320   -1.4127    0.0000 H       1  UNL1        0.0659
     25 H           3.7320    1.8273    0.0000 H       1  UNL1        0.0658
     26 H           2.0000    1.8273    0.0000 H       1  UNL1        0.2923
     27 H           1.3800   -1.7927    0.0000 H       1  UNL1        0.0660
     28 H           2.0000   -2.4127    0.0000 H       1  UNL1        0.0660
     29 H           2.6200   -1.7927    0.0000 H       1  UNL1        0.0660
@<TRIPOS>BOND
     1     1    12    1
     2     1    14    1
     3     2    13    1
     4     2    26    1
     5     3     4    1
     6     3     8    1
     7     3    20    1
     8     4     5    1
     9     4     9    1
    10     4    15    1
    11     5     6   ar
    12     5    10   ar
    13     6     7    1
    14     6    11   ar
    15     7     8    1
    16     7    16    1
    17     7    17    1
    18     8    18    1
    19     8    19    1
    20     9    21    1
    21     9    22    1
    22     9    23    1
    23    10    12   ar
    24    10    24    1
    25    11    13   ar
    26    11    25    1
    27    12    13   ar
    28    14    27    1
    29    14    28    1
    30    14    29    1
