@<TRIPOS>MOLECULE
IMPHY009452
 32 34 0 0 0
SMALL
GASTEIGER

@<TRIPOS>ATOM
      1 O           2.5836   -2.0894    0.0000 O.2     1  UNL1       -0.4626
      2 C           5.2619   -0.7846    0.0000 C.ar    1  UNL1       -0.0362
      3 C           4.3958   -0.2846    0.0000 C.ar    1  UNL1       -0.0106
      4 C           6.1719   -0.2778    0.0000 C.3     1  UNL1       -0.0232
      5 C           6.1799    0.7638    0.0000 C.3     1  UNL1       -0.0277
      6 C           3.5298   -0.7846    0.0000 C.ar    1  UNL1        0.0304
      7 C           5.2619   -1.7846    0.0000 C.ar    1  UNL1       -0.0432
      8 C           5.2778    1.2846    0.0000 C.2     1  UNL1       -0.0717
      9 C           4.3798    0.7569    0.0000 C.2     1  UNL1       -0.0546
     10 C           3.5298   -1.7846    0.0000 C.ar    1  UNL1        0.1359
     11 C           4.3958   -2.2846    0.0000 C.ar    1  UNL1       -0.0156
     12 C           2.5836   -0.4799    0.0000 C.ar    1  UNL1       -0.0044
     13 C           6.1279   -2.2846    0.0000 C.3     1  UNL1       -0.0393
     14 C           5.2740    2.2846    0.0000 C.3     1  UNL1       -0.0435
     15 C           2.0000   -1.2846    0.0000 C.ar    1  UNL1        0.0960
     16 C           2.2729    0.4706    0.0000 C.3     1  UNL1       -0.0361
     17 H           6.3764   -0.8631    0.0000 H       1  UNL1        0.0316
     18 H           6.7835   -0.1764    0.0000 H       1  UNL1        0.0316
     19 H           6.7899    0.6530    0.0000 H       1  UNL1        0.0313
     20 H           6.3935    1.3459    0.0000 H       1  UNL1        0.0313
     21 H           3.8393    1.0607    0.0000 H       1  UNL1        0.0623
     22 H           4.3958   -2.9046    0.0000 H       1  UNL1        0.0657
     23 H           5.8179   -2.8216    0.0000 H       1  UNL1        0.0278
     24 H           6.6648   -2.5946    0.0000 H       1  UNL1        0.0278
     25 H           6.4379   -1.7477    0.0000 H       1  UNL1        0.0278
     26 H           5.8940    2.2870    0.0000 H       1  UNL1        0.0274
     27 H           5.2716    2.9046    0.0000 H       1  UNL1        0.0274
     28 H           4.6540    2.2822    0.0000 H       1  UNL1        0.0274
     29 H           1.3800   -1.2846    0.0000 H       1  UNL1        0.1032
     30 H           2.8623    0.6632    0.0000 H       1  UNL1        0.0279
     31 H           2.0803    1.0600    0.0000 H       1  UNL1        0.0279
     32 H           1.6836    0.2780    0.0000 H       1  UNL1        0.0279
@<TRIPOS>BOND
     1     1    10   ar
     2     1    15   ar
     3     2     3   ar
     4     2     4    1
     5     2     7   ar
     6     3     6   ar
     7     3     9    1
     8     4     5    1
     9     4    17    1
    10     4    18    1
    11     5     8    1
    12     5    19    1
    13     5    20    1
    14     6    10   ar
    15     6    12   ar
    16     7    11   ar
    17     7    13    1
    18     8     9    2
    19     8    14    1
    20     9    21    1
    21    10    11   ar
    22    11    22    1
    23    12    15   ar
    24    12    16    1
    25    13    23    1
    26    13    24    1
    27    13    25    1
    28    14    26    1
    29    14    27    1
    30    14    28    1
    31    15    29    1
    32    16    30    1
    33    16    31    1
    34    16    32    1
