@<TRIPOS>MOLECULE
IMPHY004801
 41 45 0 0 0
SMALL
GASTEIGER

@<TRIPOS>ATOM
      1 O           8.2730    1.0877    0.0000 O.3     1  UNL1       -0.4801
      2 O           6.5130   -0.9470    0.0000 O.2     1  UNL1       -0.4507
      3 O          11.0322   -0.5941    0.0000 O.3     1  UNL1       -0.4522
      4 O          11.0451   -2.2706    0.0000 O.3     1  UNL1       -0.4526
      5 O           6.5246    2.1223    0.0000 O.2     1  UNL1       -0.2830
      6 O           4.6874    2.1654    0.0000 O.3     1  UNL1       -0.5027
      7 O           2.8680    1.1335    0.0000 O.3     1  UNL1       -0.4885
      8 O           2.8680   -0.9581    0.0000 O.3     1  UNL1       -0.4912
      9 C           9.1390   -0.4123    0.0000 C.ar    1  UNL1        0.0458
     10 C           8.2730   -0.9123    0.0000 C.ar    1  UNL1        0.0312
     11 C           7.4070   -0.4123    0.0000 C.ar    1  UNL1        0.1813
     12 C           9.1390    0.5877    0.0000 C.3     1  UNL1        0.1191
     13 C           7.4070    0.5877    0.0000 C.ar    1  UNL1        0.2113
     14 C          10.0490   -0.9191    0.0000 C.ar    1  UNL1        0.1733
     15 C           5.6070    0.6085    0.0000 C.ar    1  UNL1        0.1128
     16 C          10.0571   -1.9607    0.0000 C.ar    1  UNL1        0.1667
     17 C           8.2570   -1.9538    0.0000 C.ar    1  UNL1       -0.0469
     18 C           5.6070   -0.4331    0.0000 C.ar    1  UNL1        0.1468
     19 C           6.5130    1.1224    0.0000 C.ar    1  UNL1        0.2382
     20 C           9.1550   -2.4816    0.0000 C.ar    1  UNL1       -0.0154
     21 C           4.6758    1.1654    0.0000 C.ar    1  UNL1        0.1769
     22 C           4.6758   -0.9900    0.0000 C.ar    1  UNL1        0.0270
     23 C          11.6465   -1.4277    0.0000 C.3     1  UNL1        0.2332
     24 C           3.7320    0.6302    0.0000 C.ar    1  UNL1        0.2043
     25 C           3.7320   -0.4548    0.0000 C.ar    1  UNL1        0.1687
     26 C           2.0000    0.6369    0.0000 C.3     1  UNL1        0.0791
     27 C           2.8718   -1.9581    0.0000 C.3     1  UNL1        0.0790
     28 H           9.7496    0.4800    0.0000 H       1  UNL1        0.0749
     29 H           9.3511    1.1703    0.0000 H       1  UNL1        0.0749
     30 H           7.7165   -2.2576    0.0000 H       1  UNL1        0.0626
     31 H           9.1526   -3.1016    0.0000 H       1  UNL1        0.0655
     32 H           4.6830   -1.6100    0.0000 H       1  UNL1        0.0692
     33 H          12.1106   -1.8388    0.0000 H       1  UNL1        0.1166
     34 H          12.1042   -1.0094    0.0000 H       1  UNL1        0.1166
     35 H           4.1541    2.4816    0.0000 H       1  UNL1        0.2923
     36 H           1.6921    1.1750    0.0000 H       1  UNL1        0.0660
     37 H           1.4619    0.3289    0.0000 H       1  UNL1        0.0660
     38 H           2.3079    0.0987    0.0000 H       1  UNL1        0.0660
     39 H           2.2518   -1.9605    0.0000 H       1  UNL1        0.0660
     40 H           2.8742   -2.5781    0.0000 H       1  UNL1        0.0660
     41 H           3.4918   -1.9557    0.0000 H       1  UNL1        0.0660
@<TRIPOS>BOND
     1     1    12    1
     2     1    13    1
     3     2    11   ar
     4     2    18   ar
     5     3    14    1
     6     3    23    1
     7     4    16    1
     8     4    23    1
     9     5    19    2
    10     6    21    1
    11     6    35    1
    12     7    24    1
    13     7    26    1
    14     8    25    1
    15     8    27    1
    16     9    10   ar
    17     9    12    1
    18     9    14   ar
    19    10    11    1
    20    10    17   ar
    21    11    13   ar
    22    12    28    1
    23    12    29    1
    24    13    19   ar
    25    14    16   ar
    26    15    18   ar
    27    15    19   ar
    28    15    21   ar
    29    16    20   ar
    30    17    20   ar
    31    17    30    1
    32    18    22   ar
    33    20    31    1
    34    21    24   ar
    35    22    25   ar
    36    22    32    1
    37    23    33    1
    38    23    34    1
    39    24    25   ar
    40    26    36    1
    41    26    37    1
    42    26    38    1
    43    27    39    1
    44    27    40    1
    45    27    41    1
