@<TRIPOS>MOLECULE
IMPHY007226
 54 58 0 0 0
SMALL
GASTEIGER

@<TRIPOS>ATOM
      1 O           8.0948    2.1363    0.0000 O.3     1  UNL1       -0.3740
      2 O           9.1565    1.5900    0.0000 O.3     1  UNL1       -0.3922
      3 O           2.0000   -2.1333    0.0000 O.2     1  UNL1       -0.4675
      4 C           6.3133   -0.0256    0.0000 C.3     1  UNL1       -0.0228
      5 C           5.4124    0.4083    0.0000 C.3     1  UNL1       -0.0293
      6 C           4.5428   -0.1651    0.0000 C.3     1  UNL1       -0.0214
      7 C           6.8133    2.1650    0.0000 C.3     1  UNL1       -0.0092
      8 C           6.2065    1.1512    0.0000 C.3     1  UNL1       -0.0415
      9 C           7.2143    0.4083    0.0000 C.3     1  UNL1       -0.0154
     10 C           7.4368    1.3832    0.0000 C.3     1  UNL1        0.0954
     11 C           6.4072   -1.0630    0.0000 C.3     1  UNL1       -0.0464
     12 C           5.1898    1.3832    0.0000 C.3     1  UNL1       -0.0488
     13 C           4.6126   -1.2044    0.0000 C.3     1  UNL1       -0.0069
     14 C           5.8133    2.1650    0.0000 C.3     1  UNL1       -0.0472
     15 C           5.5511   -1.6564    0.0000 C.3     1  UNL1       -0.0451
     16 C           3.5764    0.3281    0.0000 C.3     1  UNL1       -0.0399
     17 C           4.1385    0.7495    0.0000 C.3     1  UNL1       -0.0587
     18 C           8.3563    0.9902    0.0000 C.3     1  UNL1        0.0735
     19 C           3.7209   -1.8225    0.0000 C.ar    1  UNL1       -0.0029
     20 C           2.6706   -0.2692    0.0000 C.3     1  UNL1        0.0063
     21 C           2.7433   -1.3518    0.0000 C.ar    1  UNL1        0.1083
     22 C           3.5733   -2.8910    0.0000 C.ar    1  UNL1       -0.0202
     23 C           7.7715    3.0826    0.0000 C.3     1  UNL1        0.0373
     24 C           2.5119   -3.0826    0.0000 C.ar    1  UNL1        0.0923
     25 H           4.6465    0.7771    0.0000 H       1  UNL1        0.0312
     26 H           7.0025    2.9937    0.0000 H       1  UNL1        0.0329
     27 H           5.7987    1.6182    0.0000 H       1  UNL1        0.0274
     28 H           5.6364    0.9074    0.0000 H       1  UNL1        0.0274
     29 H           7.3523   -0.1962    0.0000 H       1  UNL1        0.0299
     30 H           7.8343    0.4083    0.0000 H       1  UNL1        0.0299
     31 H           6.6680   -1.6255    0.0000 H       1  UNL1        0.0271
     32 H           7.0060   -0.9023    0.0000 H       1  UNL1        0.0271
     33 H           4.8033    1.8680    0.0000 H       1  UNL1        0.0268
     34 H           4.6312    1.1142    0.0000 H       1  UNL1        0.0268
     35 H           4.6794   -2.0518    0.0000 H       1  UNL1        0.0355
     36 H           5.9513    2.7695    0.0000 H       1  UNL1        0.0269
     37 H           5.2547    2.4341    0.0000 H       1  UNL1        0.0269
     38 H           5.1905   -2.1607    0.0000 H       1  UNL1        0.0271
     39 H           5.9863   -2.0980    0.0000 H       1  UNL1        0.0271
     40 H           3.9486    0.8240    0.0000 H       1  UNL1        0.0275
     41 H           3.1515    0.7797    0.0000 H       1  UNL1        0.0275
     42 H           4.7056    1.0001    0.0000 H       1  UNL1        0.0235
     43 H           3.8879    1.3166    0.0000 H       1  UNL1        0.0235
     44 H           3.5714    0.4989    0.0000 H       1  UNL1        0.0235
     45 H           8.0174    0.4711    0.0000 H       1  UNL1        0.0586
     46 H           8.8087    0.5662    0.0000 H       1  UNL1        0.0586
     47 H           2.4229    0.2992    0.0000 H       1  UNL1        0.0344
     48 H           2.0682   -0.4160    0.0000 H       1  UNL1        0.0344
     49 H           4.0207   -3.3202    0.0000 H       1  UNL1        0.0652
     50 H           8.3583    3.2830    0.0000 H       1  UNL1        0.0524
     51 H           7.5712    3.6693    0.0000 H       1  UNL1        0.0524
     52 H           7.1848    2.8822    0.0000 H       1  UNL1        0.0524
     53 H           9.7266    1.3463    0.0000 H       1  UNL1        0.2095
     54 H           2.2429   -3.6412    0.0000 H       1  UNL1        0.1029
@<TRIPOS>BOND
     1    10     1    1
     2     1    23    1
     3     2    18    1
     4     2    53    1
     5     3    21   ar
     6     3    24   ar
     7     4     5    1
     8     4     8    1
     9     4     9    1
    10     4    11    1
    11     5     6    1
    12     5    12    1
    13     5    25    1
    14     6    13    1
    15     6    16    1
    16     6    17    1
    17     7     8    1
    18     7    10    1
    19     7    14    1
    20     7    26    1
    21     8    27    1
    22     8    28    1
    23     9    10    1
    24     9    29    1
    25     9    30    1
    26    10    18    1
    27    11    15    1
    28    11    31    1
    29    11    32    1
    30    12    14    1
    31    12    33    1
    32    12    34    1
    33    13    15    1
    34    13    19    1
    35    13    35    1
    36    14    36    1
    37    14    37    1
    38    15    38    1
    39    15    39    1
    40    16    20    1
    41    16    40    1
    42    16    41    1
    43    17    42    1
    44    17    43    1
    45    17    44    1
    46    18    45    1
    47    18    46    1
    48    19    21   ar
    49    19    22   ar
    50    20    21    1
    51    20    47    1
    52    20    48    1
    53    22    24   ar
    54    22    49    1
    55    23    50    1
    56    23    51    1
    57    23    52    1
    58    24    54    1
