@<TRIPOS>MOLECULE
IMPHY012794
 40 42 0 0 0
SMALL
GASTEIGER

@<TRIPOS>ATOM
      1 O           6.3981   -0.9031    0.0000 O.2     1  UNL1       -0.4507
      2 O           8.1465   -1.9377    0.0000 O.3     1  UNL1       -0.4884
      3 O           9.9282   -0.9273    0.0000 O.3     1  UNL1       -0.4883
      4 O           9.9282    1.1211    0.0000 O.3     1  UNL1       -0.4884
      5 O           8.1465    2.1315    0.0000 O.3     1  UNL1       -0.5027
      6 O           6.3981    2.0969    0.0000 O.2     1  UNL1       -0.2863
      7 O           2.8680    1.1211    0.0000 O.3     1  UNL1       -0.4951
      8 C           7.2641    0.5969    0.0000 C.ar    1  UNL1        0.1134
      9 C           7.2641   -0.4031    0.0000 C.ar    1  UNL1        0.1881
     10 C           5.5320    0.5969    0.0000 C.ar    1  UNL1        0.0682
     11 C           6.3981    1.0969    0.0000 C.ar    1  UNL1        0.2041
     12 C           5.5320   -0.4031    0.0000 C.ar    1  UNL1        0.1397
     13 C           8.1580   -0.9378    0.0000 C.ar    1  UNL1        0.2088
     14 C           8.1580    1.1316    0.0000 C.ar    1  UNL1        0.1771
     15 C           9.0641   -0.4239    0.0000 C.ar    1  UNL1        0.2110
     16 C           9.0641    0.6177    0.0000 C.ar    1  UNL1        0.2080
     17 C           4.6381    1.1316    0.0000 C.ar    1  UNL1       -0.0056
     18 C           4.6381   -0.9378    0.0000 C.ar    1  UNL1       -0.0152
     19 C           3.7320    0.6177    0.0000 C.ar    1  UNL1        0.1210
     20 C           3.7320   -0.4239    0.0000 C.ar    1  UNL1       -0.0164
     21 C           9.0067   -2.4477    0.0000 C.3     1  UNL1        0.0791
     22 C          10.7961   -0.4306    0.0000 C.3     1  UNL1        0.0791
     23 C          10.7961    0.6244    0.0000 C.3     1  UNL1        0.0791
     24 C           2.0000    0.6244    0.0000 C.3     1  UNL1        0.0788
     25 H           4.6453    1.7515    0.0000 H       1  UNL1        0.0662
     26 H           4.6453   -1.5577    0.0000 H       1  UNL1        0.0656
     27 H           3.1963   -0.7360    0.0000 H       1  UNL1        0.0655
     28 H           8.6798    2.4477    0.0000 H       1  UNL1        0.2923
     29 H           8.6905   -2.9810    0.0000 H       1  UNL1        0.0660
     30 H           9.5400   -2.7639    0.0000 H       1  UNL1        0.0660
     31 H           9.3229   -1.9144    0.0000 H       1  UNL1        0.0660
     32 H          11.1041   -0.9687    0.0000 H       1  UNL1        0.0660
     33 H          11.3343   -0.1227    0.0000 H       1  UNL1        0.0660
     34 H          10.4882    0.1075    0.0000 H       1  UNL1        0.0660
     35 H          10.4882    0.0863    0.0000 H       1  UNL1        0.0660
     36 H          11.3343    0.3165    0.0000 H       1  UNL1        0.0660
     37 H          11.1041    1.1625    0.0000 H       1  UNL1        0.0660
     38 H           1.6921    1.1625    0.0000 H       1  UNL1        0.0660
     39 H           1.4619    0.3165    0.0000 H       1  UNL1        0.0660
     40 H           2.3079    0.0863    0.0000 H       1  UNL1        0.0660
@<TRIPOS>BOND
     1     1     9   ar
     2     1    12   ar
     3     2    13    1
     4     2    21    1
     5     3    15    1
     6     3    22    1
     7     4    16    1
     8     4    23    1
     9     5    14    1
    10     5    28    1
    11     6    11    2
    12     7    19    1
    13     7    24    1
    14     8     9   ar
    15     8    11   ar
    16     8    14   ar
    17     9    13   ar
    18    10    11   ar
    19    10    12   ar
    20    10    17   ar
    21    12    18   ar
    22    13    15   ar
    23    14    16   ar
    24    15    16   ar
    25    17    19   ar
    26    17    25    1
    27    18    20   ar
    28    18    26    1
    29    19    20   ar
    30    20    27    1
    31    21    29    1
    32    21    30    1
    33    21    31    1
    34    22    32    1
    35    22    33    1
    36    22    34    1
    37    23    35    1
    38    23    36    1
    39    23    37    1
    40    24    38    1
    41    24    39    1
    42    24    40    1
