@<TRIPOS>MOLECULE
IMPHY008639
 77 81 0 0 0
SMALL
GASTEIGER

@<TRIPOS>ATOM
      1 O           2.0000   -2.6574    0.0000 O.2     1  UNL1       -0.2968
      2 C           7.3931   -0.6051    0.0000 C.3     1  UNL1       -0.0014
      3 C           6.5271   -1.1050    0.0000 C.3     1  UNL1       -0.0012
      4 C           8.2870    0.9296    0.0000 C.3     1  UNL1       -0.0108
      5 C           9.1931    0.4158    0.0000 C.3     1  UNL1       -0.0252
      6 C           4.7510   -1.1119    0.0000 C.3     1  UNL1       -0.0062
      7 C           7.3931    0.3949    0.0000 C.2     1  UNL1       -0.0590
      8 C           5.6610   -0.6051    0.0000 C.2     1  UNL1       -0.0566
      9 C           4.7430   -2.1535    0.0000 C.3     1  UNL1       -0.0200
     10 C           8.2870   -1.1397    0.0000 C.3     1  UNL1       -0.0426
     11 C           6.5431   -2.1466    0.0000 C.3     1  UNL1       -0.0428
     12 C           9.1931   -0.6259    0.0000 C.3     1  UNL1       -0.0463
     13 C           8.2619    2.0143    0.0000 C.3     1  UNL1       -0.0343
     14 C           5.6451   -2.6743    0.0000 C.3     1  UNL1       -0.0477
     15 C          10.1369    0.9510    0.0000 C.3     1  UNL1       -0.0468
     16 C           3.8076   -2.7032    0.0000 C.3     1  UNL1        0.0270
     17 C           3.8242   -0.5478    0.0000 C.3     1  UNL1       -0.0369
     18 C           9.1931    2.5712    0.0000 C.3     1  UNL1       -0.0407
     19 C           7.7352   -1.5447    0.0000 C.3     1  UNL1       -0.0550
     20 C           7.1698   -1.8711    0.0000 C.3     1  UNL1       -0.0550
     21 C           6.5271    0.8949    0.0000 C.2     1  UNL1       -0.0617
     22 C           5.6610    0.3949    0.0000 C.2     1  UNL1       -0.0614
     23 C          10.1369    2.0360    0.0000 C.3     1  UNL1       -0.0497
     24 C          10.0629   -0.0775    0.0000 C.3     1  UNL1       -0.0590
     25 C           4.7587   -0.1119    0.0000 C.3     1  UNL1       -0.0555
     26 C           2.8763   -1.0758    0.0000 C.3     1  UNL1        0.0072
     27 C           2.8680   -2.1607    0.0000 C.2     1  UNL1        0.1392
     28 C           7.3864    2.4975    0.0000 C.3     1  UNL1       -0.0616
     29 C           3.3109   -3.5712    0.0000 C.3     1  UNL1       -0.0528
     30 C           4.3109   -3.5673    0.0000 C.3     1  UNL1       -0.0528
     31 C           9.1815    3.5712    0.0000 C.3     1  UNL1       -0.0622
     32 H           7.5428    1.3404    0.0000 H       1  UNL1        0.0354
     33 H           4.7463   -3.0035    0.0000 H       1  UNL1        0.0318
     34 H           7.8824   -1.6095    0.0000 H       1  UNL1        0.0274
     35 H           8.6806   -1.6187    0.0000 H       1  UNL1        0.0274
     36 H           6.7612   -2.7270    0.0000 H       1  UNL1        0.0274
     37 H           7.1523   -2.0311    0.0000 H       1  UNL1        0.0274
     38 H           9.4022   -1.2096    0.0000 H       1  UNL1        0.0271
     39 H           9.8040   -0.5198    0.0000 H       1  UNL1        0.0271
     40 H           7.7317    1.6930    0.0000 H       1  UNL1        0.0307
     41 H           5.2478   -3.1503    0.0000 H       1  UNL1        0.0269
     42 H           6.0460   -3.1472    0.0000 H       1  UNL1        0.0269
     43 H          10.3459    0.3673    0.0000 H       1  UNL1        0.0271
     44 H          10.7477    1.0571    0.0000 H       1  UNL1        0.0271
     45 H           4.2324   -0.0812    0.0000 H       1  UNL1        0.0278
     46 H           3.4343   -0.0658    0.0000 H       1  UNL1        0.0278
     47 H           9.7270    2.8864    0.0000 H       1  UNL1        0.0301
     48 H           7.1526   -1.7568    0.0000 H       1  UNL1        0.0238
     49 H           7.9473   -2.1273    0.0000 H       1  UNL1        0.0238
     50 H           8.3178   -1.3326    0.0000 H       1  UNL1        0.0238
     51 H           6.6949   -2.2696    0.0000 H       1  UNL1        0.0238
     52 H           7.5684   -2.3460    0.0000 H       1  UNL1        0.0238
     53 H           7.6448   -1.4726    0.0000 H       1  UNL1        0.0238
     54 H           6.5271    1.5150    0.0000 H       1  UNL1        0.0617
     55 H           5.1241    0.7049    0.0000 H       1  UNL1        0.0618
     56 H          10.7477    1.9299    0.0000 H       1  UNL1        0.0268
     57 H          10.3459    2.6197    0.0000 H       1  UNL1        0.0268
     58 H           9.7571   -0.6169    0.0000 H       1  UNL1        0.0235
     59 H          10.6023   -0.3834    0.0000 H       1  UNL1        0.0235
     60 H          10.3688    0.4618    0.0000 H       1  UNL1        0.0235
     61 H           5.3787   -0.1167    0.0000 H       1  UNL1        0.0238
     62 H           4.7635    0.5081    0.0000 H       1  UNL1        0.0238
     63 H           4.1388   -0.1071    0.0000 H       1  UNL1        0.0238
     64 H           2.6718   -0.4905    0.0000 H       1  UNL1        0.0342
     65 H           2.2647   -1.1771    0.0000 H       1  UNL1        0.0342
     66 H           7.6860    3.0403    0.0000 H       1  UNL1        0.0233
     67 H           6.8436    2.7971    0.0000 H       1  UNL1        0.0233
     68 H           7.0868    1.9547    0.0000 H       1  UNL1        0.0233
     69 H           2.7728   -3.2632    0.0000 H       1  UNL1        0.0239
     70 H           3.0030   -4.1093    0.0000 H       1  UNL1        0.0239
     71 H           3.8490   -3.8791    0.0000 H       1  UNL1        0.0239
     72 H           3.7752   -3.8794    0.0000 H       1  UNL1        0.0239
     73 H           4.6230   -4.1030    0.0000 H       1  UNL1        0.0239
     74 H           4.8466   -3.2553    0.0000 H       1  UNL1        0.0239
     75 H           9.8015    3.5783    0.0000 H       1  UNL1        0.0233
     76 H           9.1744    4.1911    0.0000 H       1  UNL1        0.0233
     77 H           8.5616    3.5640    0.0000 H       1  UNL1        0.0233
@<TRIPOS>BOND
     1     1    27    2
     2     2     3    1
     3     2     7    1
     4     2    10    1
     5     2    19    1
     6     3     8    1
     7     3    11    1
     8     3    20    1
     9     4     5    1
    10     4     7    1
    11     4    13    1
    12     4    32    1
    13     5    12    1
    14     5    15    1
    15     5    24    1
    16     6     8    1
    17     6     9    1
    18     6    17    1
    19     6    25    1
    20     7    21    2
    21     8    22    2
    22     9    14    1
    23     9    16    1
    24     9    33    1
    25    10    12    1
    26    10    34    1
    27    10    35    1
    28    11    14    1
    29    11    36    1
    30    11    37    1
    31    12    38    1
    32    12    39    1
    33    13    18    1
    34    13    28    1
    35    13    40    1
    36    14    41    1
    37    14    42    1
    38    15    23    1
    39    15    43    1
    40    15    44    1
    41    16    27    1
    42    16    29    1
    43    16    30    1
    44    17    26    1
    45    17    45    1
    46    17    46    1
    47    18    23    1
    48    18    31    1
    49    18    47    1
    50    19    48    1
    51    19    49    1
    52    19    50    1
    53    20    51    1
    54    20    52    1
    55    20    53    1
    56    21    22    1
    57    21    54    1
    58    22    55    1
    59    23    56    1
    60    23    57    1
    61    24    58    1
    62    24    59    1
    63    24    60    1
    64    25    61    1
    65    25    62    1
    66    25    63    1
    67    26    27    1
    68    26    64    1
    69    26    65    1
    70    28    66    1
    71    28    67    1
    72    28    68    1
    73    29    69    1
    74    29    70    1
    75    29    71    1
    76    30    72    1
    77    30    73    1
    78    30    74    1
    79    31    75    1
    80    31    76    1
    81    31    77    1
