@<TRIPOS>MOLECULE
IMPHY000694
 83 88 0 0 0
SMALL
GASTEIGER

@<TRIPOS>ATOM
      1 O          10.0701   -0.5019    0.0000 O.2     1  UNL1       -0.2916
      2 O           9.6648    0.1168    0.0000 O.3     1  UNL1       -0.5063
      3 O           9.6648   -3.3473    0.0000 O.3     1  UNL1       -0.5063
      4 O          10.3708    1.2038    0.0000 O.3     1  UNL1       -0.5057
      5 O          15.7270   -0.1153    0.0000 O.3     1  UNL1       -0.5068
      6 O           6.0812   -2.4200    0.0000 O.2     1  UNL1       -0.4547
      7 O          13.6260    2.3886    0.0000 O.3     1  UNL1       -0.5064
      8 O           2.5369   -2.6153    0.0000 O.3     1  UNL1       -0.5066
      9 C          11.3969   -1.6153    0.0000 C.3     1  UNL1        0.0398
     10 C          12.2629   -2.1153    0.0000 C.3     1  UNL1       -0.0015
     11 C          10.5309   -2.1153    0.0000 C.3     1  UNL1        0.0198
     12 C          12.2629   -3.1153    0.0000 C.3     1  UNL1       -0.0245
     13 C          11.3969   -3.6153    0.0000 C.2     1  UNL1       -0.0753
     14 C          10.5309   -3.1153    0.0000 C.2     1  UNL1       -0.0767
     15 C          13.1289   -1.6153    0.0000 C.ar    1  UNL1       -0.0430
     16 C           9.6648   -1.6153    0.0000 C.ar    1  UNL1        0.0429
     17 C          11.0549   -0.6756    0.0000 C.2     1  UNL1        0.1712
     18 C          11.3969   -4.6153    0.0000 C.3     1  UNL1       -0.0437
     19 C          11.6977    0.0905    0.0000 C.ar    1  UNL1        0.0596
     20 C           9.1648   -0.7493    0.0000 C.ar    1  UNL1        0.1248
     21 C           9.1648   -2.4813    0.0000 C.ar    1  UNL1        0.1248
     22 C          13.9950   -2.1153    0.0000 C.ar    1  UNL1       -0.0548
     23 C          13.1289   -0.6153    0.0000 C.ar    1  UNL1       -0.0548
     24 C           8.1648   -0.7493    0.0000 C.ar    1  UNL1       -0.0090
     25 C           8.1648   -2.4813    0.0000 C.ar    1  UNL1       -0.0090
     26 C          11.3556    1.0301    0.0000 C.ar    1  UNL1        0.1342
     27 C          14.8610   -1.6153    0.0000 C.ar    1  UNL1       -0.0199
     28 C          13.9950   -0.1153    0.0000 C.ar    1  UNL1       -0.0199
     29 C           7.6648   -1.6153    0.0000 C.ar    1  UNL1        0.0242
     30 C          12.6825   -0.0832    0.0000 C.ar    1  UNL1       -0.0443
     31 C          14.8610   -0.6153    0.0000 C.ar    1  UNL1        0.1169
     32 C          11.9984    1.7962    0.0000 C.ar    1  UNL1        0.0398
     33 C          13.3253    0.6829    0.0000 C.ar    1  UNL1       -0.0190
     34 C           6.6648   -1.6153    0.0000 C.ar    1  UNL1        0.1365
     35 C          12.9832    1.6226    0.0000 C.ar    1  UNL1        0.1238
     36 C          11.6564    2.7359    0.0000 C.3     1  UNL1       -0.0023
     37 C           6.0812   -0.8105    0.0000 C.ar    1  UNL1       -0.0081
     38 C           5.1350   -1.1153    0.0000 C.ar    1  UNL1        0.0210
     39 C           5.1350   -2.1153    0.0000 C.ar    1  UNL1        0.1391
     40 C          10.6716    2.9095    0.0000 C.2     1  UNL1       -0.0807
     41 C          10.3296    3.8492    0.0000 C.2     1  UNL1       -0.0793
     42 C           4.2690   -0.6153    0.0000 C.ar    1  UNL1       -0.0475
     43 C           4.2690   -2.6153    0.0000 C.ar    1  UNL1        0.0227
     44 C           3.4030   -2.1153    0.0000 C.ar    1  UNL1        0.1204
     45 C           3.4030   -1.1153    0.0000 C.ar    1  UNL1       -0.0194
     46 C           9.3448    4.0229    0.0000 C.3     1  UNL1       -0.0440
     47 C          10.9724    4.6153    0.0000 C.3     1  UNL1       -0.0440
     48 H          11.8718   -1.2168    0.0000 H       1  UNL1        0.0396
     49 H          12.7999   -2.4253    0.0000 H       1  UNL1        0.0359
     50 H           9.7947   -2.5403    0.0000 H       1  UNL1        0.0401
     51 H          12.4750   -3.6979    0.0000 H       1  UNL1        0.0316
     52 H          12.8735   -3.0076    0.0000 H       1  UNL1        0.0316
     53 H           9.9939   -3.4253    0.0000 H       1  UNL1        0.0578
     54 H          10.7769   -4.6153    0.0000 H       1  UNL1        0.0274
     55 H          11.3969   -5.2353    0.0000 H       1  UNL1        0.0274
     56 H          12.0169   -4.6153    0.0000 H       1  UNL1        0.0274
     57 H          13.9950   -2.7353    0.0000 H       1  UNL1        0.0622
     58 H          12.5920   -0.3053    0.0000 H       1  UNL1        0.0622
     59 H           7.8548   -0.2123    0.0000 H       1  UNL1        0.0661
     60 H           7.8548   -3.0182    0.0000 H       1  UNL1        0.0661
     61 H          15.3979   -1.9253    0.0000 H       1  UNL1        0.0654
     62 H          13.9950    0.5047    0.0000 H       1  UNL1        0.0654
     63 H          12.8945   -0.6658    0.0000 H       1  UNL1        0.0627
     64 H           9.3548    0.6537    0.0000 H       1  UNL1        0.2921
     65 H           9.3548   -3.8843    0.0000 H       1  UNL1        0.2921
     66 H          13.9358    0.5752    0.0000 H       1  UNL1        0.0654
     67 H          12.2670    2.8436    0.0000 H       1  UNL1        0.0358
     68 H          11.6564    3.3559    0.0000 H       1  UNL1        0.0358
     69 H          10.1588    1.7864    0.0000 H       1  UNL1        0.2922
     70 H           6.2738   -0.2212    0.0000 H       1  UNL1        0.0661
     71 H          16.2640   -0.4253    0.0000 H       1  UNL1        0.2921
     72 H          10.2731    2.4346    0.0000 H       1  UNL1        0.0575
     73 H          14.2366    2.2809    0.0000 H       1  UNL1        0.2921
     74 H           4.2690    0.0047    0.0000 H       1  UNL1        0.0626
     75 H           4.2690   -3.2353    0.0000 H       1  UNL1        0.0691
     76 H           2.8660   -0.8053    0.0000 H       1  UNL1        0.0654
     77 H           9.4524    4.6335    0.0000 H       1  UNL1        0.0274
     78 H           8.7342    4.1305    0.0000 H       1  UNL1        0.0274
     79 H           9.2371    3.4123    0.0000 H       1  UNL1        0.0274
     80 H          11.4473    4.2168    0.0000 H       1  UNL1        0.0274
     81 H          11.3709    5.0902    0.0000 H       1  UNL1        0.0274
     82 H          10.4974    5.0138    0.0000 H       1  UNL1        0.0274
     83 H           2.0000   -2.3053    0.0000 H       1  UNL1        0.2921
@<TRIPOS>BOND
     1     1    17    2
     2     2    20    1
     3     2    64    1
     4     3    21    1
     5     3    65    1
     6     4    26    1
     7     4    69    1
     8     5    31    1
     9     5    71    1
    10     6    34   ar
    11     6    39   ar
    12     7    35    1
    13     7    73    1
    14     8    44    1
    15     8    83    1
    16     9    10    1
    17     9    11    1
    18     9    17    1
    19     9    48    1
    20    10    12    1
    21    10    15    1
    22    10    49    1
    23    11    14    1
    24    11    16    1
    25    11    50    1
    26    12    13    1
    27    12    51    1
    28    12    52    1
    29    13    14    2
    30    13    18    1
    31    14    53    1
    32    15    22   ar
    33    15    23   ar
    34    16    20   ar
    35    16    21   ar
    36    17    19    1
    37    18    54    1
    38    18    55    1
    39    18    56    1
    40    19    26   ar
    41    19    30   ar
    42    20    24   ar
    43    21    25   ar
    44    22    27   ar
    45    22    57    1
    46    23    28   ar
    47    23    58    1
    48    24    29   ar
    49    24    59    1
    50    25    29   ar
    51    25    60    1
    52    26    32   ar
    53    27    31   ar
    54    27    61    1
    55    28    31   ar
    56    28    62    1
    57    29    34    1
    58    30    33   ar
    59    30    63    1
    60    32    35   ar
    61    32    36    1
    62    33    35   ar
    63    33    66    1
    64    34    37   ar
    65    36    40    1
    66    36    67    1
    67    36    68    1
    68    37    38   ar
    69    37    70    1
    70    38    39   ar
    71    38    42   ar
    72    39    43   ar
    73    40    41    2
    74    40    72    1
    75    41    46    1
    76    41    47    1
    77    42    45   ar
    78    42    74    1
    79    43    44   ar
    80    43    75    1
    81    44    45   ar
    82    45    76    1
    83    46    77    1
    84    46    78    1
    85    46    79    1
    86    47    80    1
    87    47    81    1
    88    47    82    1
