@<TRIPOS>MOLECULE
IMPHY002812
 44 48 0 0 0
SMALL
GASTEIGER

@<TRIPOS>ATOM
      1 O           2.5063    1.9985    0.0000 O.3     1  UNL1       -0.3907
      2 N           6.0271   -0.2976    0.0000 N.3     1  UNL1       -0.2770
      3 N           5.0226   -1.6711    0.0000 N.pl3   1  UNL1       -0.3247
      4 C           5.1032   -0.6802    0.0000 C.3     1  UNL1        0.1004
      5 C           4.1793   -0.2976    0.0000 C.3     1  UNL1        0.0517
      6 C           4.7372    0.6263    0.0000 C.3     1  UNL1       -0.0065
      7 C           4.6023   -1.2057    0.0000 C.3     1  UNL1       -0.0237
      8 C           5.1032    1.9329    0.0000 C.3     1  UNL1        0.0077
      9 C           5.6041   -1.2057    0.0000 C.3     1  UNL1        0.0024
     10 C           3.5357   -1.0551    0.0000 C.ar    1  UNL1       -0.0132
     11 C           3.7966    0.6263    0.0000 C.2     1  UNL1       -0.0682
     12 C           6.4098    0.6263    0.0000 C.3     1  UNL1        0.0225
     13 C           4.1793    1.5502    0.0000 C.2     1  UNL1       -0.0402
     14 C           6.0271    1.5502    0.0000 C.2     1  UNL1       -0.0525
     15 C           4.0558   -1.9023    0.0000 C.ar    1  UNL1        0.0326
     16 C           2.5003   -1.0672    0.0000 C.ar    1  UNL1       -0.0559
     17 C           3.4722    2.2573    0.0000 C.3     1  UNL1        0.0659
     18 C           3.5766   -2.8202    0.0000 C.ar    1  UNL1       -0.0405
     19 C           6.7342    2.2573    0.0000 C.2     1  UNL1       -0.0861
     20 C           2.0000   -1.9738    0.0000 C.ar    1  UNL1       -0.0614
     21 C           2.5418   -2.8562    0.0000 C.ar    1  UNL1       -0.0600
     22 C           7.7001    1.9985    0.0000 C.3     1  UNL1       -0.0465
     23 H           4.2307    0.9838    0.0000 H       1  UNL1        0.0308
     24 H           5.3572    0.6263    0.0000 H       1  UNL1        0.0308
     25 H           4.0083   -1.3833    0.0000 H       1  UNL1        0.0290
     26 H           4.6921   -1.8192    0.0000 H       1  UNL1        0.0290
     27 H           5.1032    2.7829    0.0000 H       1  UNL1        0.0393
     28 H           5.5143   -1.8192    0.0000 H       1  UNL1        0.0428
     29 H           6.1981   -1.3833    0.0000 H       1  UNL1        0.0428
     30 H           5.4934   -2.0745    0.0000 H       1  UNL1        0.1479
     31 H           3.1766    0.6263    0.0000 H       1  UNL1        0.0582
     32 H           6.9016    0.2489    0.0000 H       1  UNL1        0.0473
     33 H           6.9016    1.0037    0.0000 H       1  UNL1        0.0473
     34 H           2.1820   -0.5351    0.0000 H       1  UNL1        0.0621
     35 H           3.9801    2.6129    0.0000 H       1  UNL1        0.0604
     36 H           3.2102    2.8192    0.0000 H       1  UNL1        0.0604
     37 H           3.9071   -3.3448    0.0000 H       1  UNL1        0.0636
     38 H           6.5737    2.8562    0.0000 H       1  UNL1        0.0569
     39 H           1.3802   -1.9881    0.0000 H       1  UNL1        0.0618
     40 H           2.2485   -3.4024    0.0000 H       1  UNL1        0.0618
     41 H           7.5396    1.3996    0.0000 H       1  UNL1        0.0272
     42 H           8.2990    1.8380    0.0000 H       1  UNL1        0.0272
     43 H           7.8606    2.5974    0.0000 H       1  UNL1        0.0272
     44 H           2.0679    2.4369    0.0000 H       1  UNL1        0.2098
@<TRIPOS>BOND
     1     1    17    1
     2     1    44    1
     3     2     4    1
     4     2     9    1
     5     2    12    1
     6     4     3    1
     7     3    15    1
     8     3    30    1
     9     4     5    1
    10     4     6    1
    11     5     7    1
    12     5    10    1
    13     5    11    1
    14     6     8    1
    15     6    23    1
    16     6    24    1
    17     7     9    1
    18     7    25    1
    19     7    26    1
    20     8    13    1
    21     8    14    1
    22     8    27    1
    23     9    28    1
    24     9    29    1
    25    10    15   ar
    26    10    16   ar
    27    11    13    2
    28    11    31    1
    29    12    14    1
    30    12    32    1
    31    12    33    1
    32    13    17    1
    33    14    19    2
    34    15    18   ar
    35    16    20   ar
    36    16    34    1
    37    17    35    1
    38    17    36    1
    39    18    21   ar
    40    18    37    1
    41    19    22    1
    42    19    38    1
    43    20    21   ar
    44    20    39    1
    45    21    40    1
    46    22    41    1
    47    22    42    1
    48    22    43    1
