@<TRIPOS>MOLECULE
IMPHY013997
 26 26 0 0 0
SMALL
GASTEIGER

@<TRIPOS>ATOM
      1 O           2.0000    1.0000    0.0000 O.3     1  UNL1       -0.3729
      2 O           3.7320    2.0000    0.0000 O.3     1  UNL1       -0.3801
      3 C           2.8660    0.5000    0.0000 C.3     1  UNL1        0.1065
      4 C           2.8660   -0.5000    0.0000 C.ar    1  UNL1       -0.0167
      5 C           3.7320    1.0000    0.0000 C.3     1  UNL1        0.0776
      6 C           2.0000   -1.0000    0.0000 C.ar    1  UNL1       -0.0560
      7 C           3.7320   -1.0000    0.0000 C.ar    1  UNL1       -0.0560
      8 C           2.0000   -2.0000    0.0000 C.ar    1  UNL1       -0.0614
      9 C           3.7320   -2.0000    0.0000 C.ar    1  UNL1       -0.0614
     10 C           2.8660   -2.5000    0.0000 C.ar    1  UNL1       -0.0617
     11 C           2.0000    2.0000    0.0000 C.3     1  UNL1        0.0373
     12 C           4.5981    2.5000    0.0000 C.3     1  UNL1        0.0366
     13 H           2.8660    1.1200    0.0000 H       1  UNL1        0.0669
     14 H           3.9441    0.4174    0.0000 H       1  UNL1        0.0589
     15 H           4.3426    1.1077    0.0000 H       1  UNL1        0.0589
     16 H           1.4631   -0.6900    0.0000 H       1  UNL1        0.0621
     17 H           4.2690   -0.6900    0.0000 H       1  UNL1        0.0621
     18 H           1.4631   -2.3100    0.0000 H       1  UNL1        0.0618
     19 H           4.2690   -2.3100    0.0000 H       1  UNL1        0.0618
     20 H           2.8660   -3.1200    0.0000 H       1  UNL1        0.0618
     21 H           2.6200    2.0000    0.0000 H       1  UNL1        0.0524
     22 H           2.0000    2.6200    0.0000 H       1  UNL1        0.0524
     23 H           1.3800    2.0000    0.0000 H       1  UNL1        0.0524
     24 H           4.9081    1.9631    0.0000 H       1  UNL1        0.0524
     25 H           5.1350    2.8100    0.0000 H       1  UNL1        0.0524
     26 H           4.2881    3.0369    0.0000 H       1  UNL1        0.0524
@<TRIPOS>BOND
     1     1     3    1
     2     1    11    1
     3     2     5    1
     4     2    12    1
     5     3     4    1
     6     3     5    1
     7     3    13    1
     8     4     6   ar
     9     4     7   ar
    10     5    14    1
    11     5    15    1
    12     6     8   ar
    13     6    16    1
    14     7     9   ar
    15     7    17    1
    16     8    10   ar
    17     8    18    1
    18     9    10   ar
    19     9    19    1
    20    10    20    1
    21    11    21    1
    22    11    22    1
    23    11    23    1
    24    12    24    1
    25    12    25    1
    26    12    26    1
