@<TRIPOS>MOLECULE
IMPHY002047
 76 78 0 0 0
SMALL
GASTEIGER

@<TRIPOS>ATOM
      1 O           5.1350   -3.5000    0.0000 O.3     1  UNL1       -0.3313
      2 O           6.8671   -3.5000    0.0000 O.3     1  UNL1       -0.4572
      3 O           5.1350   -6.5000    0.0000 O.3     1  UNL1       -0.3864
      4 O           3.4030   -5.5000    0.0000 O.3     1  UNL1       -0.3865
      5 O           6.8671   -5.5000    0.0000 O.3     1  UNL1       -0.3829
      6 O           2.5369   -4.0000    0.0000 O.3     1  UNL1       -0.3924
      7 O           5.1350   -2.5000    0.0000 O.3     1  UNL1       -0.4914
      8 O           7.7331    2.0000    0.0000 O.3     1  UNL1       -0.4766
      9 O           6.0010    1.0000    0.0000 O.3     1  UNL1       -0.3834
     10 O           8.5991   -0.5000    0.0000 O.3     1  UNL1       -0.3913
     11 O           9.4651    1.0000    0.0000 O.3     1  UNL1       -0.4913
     12 O           7.7331    4.0000    0.0000 O.3     1  UNL1       -0.4913
     13 O          12.0632    6.5000    0.0000 O.3     1  UNL1       -0.3910
     14 C           5.1350   -5.5000    0.0000 C.3     1  UNL1        0.1152
     15 C           4.2690   -5.0000    0.0000 C.3     1  UNL1        0.1120
     16 C           6.0010   -5.0000    0.0000 C.3     1  UNL1        0.1454
     17 C           4.2690   -4.0000    0.0000 C.3     1  UNL1        0.1140
     18 C           6.0010   -4.0000    0.0000 C.3     1  UNL1        0.2310
     19 C           3.4030   -3.5000    0.0000 C.3     1  UNL1        0.0731
     20 C           6.8671   -2.5000    0.0000 C.ar    1  UNL1        0.1654
     21 C           6.0010   -2.0000    0.0000 C.ar    1  UNL1        0.1620
     22 C           6.8671    0.5000    0.0000 C.3     1  UNL1        0.1192
     23 C           6.8671   -0.5000    0.0000 C.ar    1  UNL1       -0.0119
     24 C           7.7331   -2.0000    0.0000 C.ar    1  UNL1       -0.0158
     25 C           7.7331    1.0000    0.0000 C.3     1  UNL1        0.1531
     26 C           6.0010   -1.0000    0.0000 C.ar    1  UNL1       -0.0106
     27 C           7.7331   -1.0000    0.0000 C.ar    1  UNL1       -0.0523
     28 C           8.5991    0.5000    0.0000 C.3     1  UNL1        0.0839
     29 C           8.5991    2.5000    0.0000 C.ar    1  UNL1        0.2042
     30 C           4.2690   -2.0000    0.0000 C.3     1  UNL1        0.0790
     31 C           9.4651    2.0000    0.0000 C.ar    1  UNL1        0.1658
     32 C           8.5991    3.5000    0.0000 C.ar    1  UNL1        0.1658
     33 C          10.3312    2.5000    0.0000 C.ar    1  UNL1       -0.0089
     34 C           9.4651    4.0000    0.0000 C.ar    1  UNL1       -0.0089
     35 C          10.3312    3.5000    0.0000 C.ar    1  UNL1       -0.0181
     36 C          11.1972    4.0000    0.0000 C.2     1  UNL1       -0.0562
     37 C          10.3312    0.5000    0.0000 C.3     1  UNL1        0.0790
     38 C           7.7331    5.0000    0.0000 C.3     1  UNL1        0.0790
     39 C          11.1972    5.0000    0.0000 C.2     1  UNL1       -0.0584
     40 C          12.0632    5.5000    0.0000 C.3     1  UNL1        0.0627
     41 H           5.6720   -5.8100    0.0000 H       1  UNL1        0.0648
     42 H           4.2690   -5.6200    0.0000 H       1  UNL1        0.0647
     43 H           6.5380   -4.6900    0.0000 H       1  UNL1        0.0683
     44 H           4.2690   -3.3800    0.0000 H       1  UNL1        0.0647
     45 H           6.0010   -3.3800    0.0000 H       1  UNL1        0.1084
     46 H           3.8015   -3.0250    0.0000 H       1  UNL1        0.0584
     47 H           3.0044   -3.0250    0.0000 H       1  UNL1        0.0584
     48 H           5.6720   -6.8100    0.0000 H       1  UNL1        0.2100
     49 H           3.4030   -6.1200    0.0000 H       1  UNL1        0.2100
     50 H           7.4040   -5.1900    0.0000 H       1  UNL1        0.2102
     51 H           2.0000   -3.6900    0.0000 H       1  UNL1        0.2095
     52 H           6.3301    0.1900    0.0000 H       1  UNL1        0.0682
     53 H           8.2700   -2.3100    0.0000 H       1  UNL1        0.0655
     54 H           7.1962    1.3100    0.0000 H       1  UNL1        0.0786
     55 H           5.4641   -0.6900    0.0000 H       1  UNL1        0.0659
     56 H           8.2700   -0.6900    0.0000 H       1  UNL1        0.0622
     57 H           9.2097    0.3923    0.0000 H       1  UNL1        0.0595
     58 H           8.8112    1.0826    0.0000 H       1  UNL1        0.0595
     59 H           6.0010    1.6200    0.0000 H       1  UNL1        0.2104
     60 H           4.5790   -1.4631    0.0000 H       1  UNL1        0.0660
     61 H           3.7320   -1.6900    0.0000 H       1  UNL1        0.0660
     62 H           3.9590   -2.5369    0.0000 H       1  UNL1        0.0660
     63 H           9.1360   -0.8100    0.0000 H       1  UNL1        0.2096
     64 H          10.8681    2.1900    0.0000 H       1  UNL1        0.0661
     65 H           9.4651    4.6200    0.0000 H       1  UNL1        0.0661
     66 H          11.7341    3.6900    0.0000 H       1  UNL1        0.0621
     67 H          10.0212   -0.0369    0.0000 H       1  UNL1        0.0660
     68 H          10.8681    0.1900    0.0000 H       1  UNL1        0.0660
     69 H          10.6412    1.0369    0.0000 H       1  UNL1        0.0660
     70 H           8.3531    5.0000    0.0000 H       1  UNL1        0.0660
     71 H           7.7331    5.6200    0.0000 H       1  UNL1        0.0660
     72 H           7.1131    5.0000    0.0000 H       1  UNL1        0.0660
     73 H          10.6603    5.3100    0.0000 H       1  UNL1        0.0595
     74 H          12.2753    4.9174    0.0000 H       1  UNL1        0.0601
     75 H          12.6738    5.6077    0.0000 H       1  UNL1        0.0601
     76 H          12.6002    6.8100    0.0000 H       1  UNL1        0.2098
@<TRIPOS>BOND
     1     1    17    1
     2     1    18    1
     3    18     2    1
     4     2    20    1
     5    14     3    1
     6     3    48    1
     7    15     4    1
     8     4    49    1
     9    16     5    1
    10     5    50    1
    11     6    19    1
    12     6    51    1
    13     7    21    1
    14     7    30    1
    15     8    25    1
    16     8    29    1
    17     9    22    1
    18     9    59    1
    19    10    28    1
    20    10    63    1
    21    11    31    1
    22    11    37    1
    23    12    32    1
    24    12    38    1
    25    13    40    1
    26    13    76    1
    27    14    15    1
    28    14    16    1
    29    14    41    1
    30    15    17    1
    31    15    42    1
    32    16    18    1
    33    16    43    1
    34    17    19    1
    35    17    44    1
    36    18    45    1
    37    19    46    1
    38    19    47    1
    39    20    21   ar
    40    20    24   ar
    41    21    26   ar
    42    22    23    1
    43    22    25    1
    44    22    52    1
    45    23    26   ar
    46    23    27   ar
    47    24    27   ar
    48    24    53    1
    49    25    28    1
    50    25    54    1
    51    26    55    1
    52    27    56    1
    53    28    57    1
    54    28    58    1
    55    29    31   ar
    56    29    32   ar
    57    30    60    1
    58    30    61    1
    59    30    62    1
    60    31    33   ar
    61    32    34   ar
    62    33    35   ar
    63    33    64    1
    64    34    35   ar
    65    34    65    1
    66    35    36    1
    67    36    39    2
    68    36    66    1
    69    37    67    1
    70    37    68    1
    71    37    69    1
    72    38    70    1
    73    38    71    1
    74    38    72    1
    75    39    40    1
    76    39    73    1
    77    40    74    1
    78    40    75    1
