@<TRIPOS>MOLECULE
IMPHY002006
 69 74 0 0 0
SMALL
GASTEIGER

@<TRIPOS>ATOM
      1 O           5.6993   -1.0603    0.0000 O.3     1  UNL1       -0.3515
      2 O           8.3939   -1.6020    0.0000 O.3     1  UNL1       -0.4539
      3 O           4.8614   -1.5881    0.0000 O.3     1  UNL1       -0.4609
      4 O           7.4879   -3.1228    0.0000 O.2     1  UNL1       -0.2478
      5 O           2.1359    3.0909    0.0000 O.2     1  UNL1       -0.2921
      6 O          10.3147    1.1645    0.0000 O.2     1  UNL1       -0.4706
      7 O           3.1295   -1.6081    0.0000 O.2     1  UNL1       -0.2512
      8 C           6.6098   -0.5535    0.0000 C.3     1  UNL1        0.1250
      9 C           5.7438   -0.0535    0.0000 C.3     1  UNL1        0.0412
     10 C           5.7438    0.9465    0.0000 C.3     1  UNL1       -0.0204
     11 C           7.4758   -0.0535    0.0000 C.3     1  UNL1        0.0419
     12 C           6.5938   -1.5950    0.0000 C.3     1  UNL1        0.1858
     13 C           4.8498    1.4812    0.0000 C.3     1  UNL1       -0.0063
     14 C           4.8498   -0.5882    0.0000 C.3     1  UNL1        0.1117
     15 C           6.6098    1.4465    0.0000 C.3     1  UNL1       -0.0480
     16 C           7.4758    0.9465    0.0000 C.3     1  UNL1       -0.0409
     17 C           3.9438    0.9673    0.0000 C.3     1  UNL1       -0.0164
     18 C           3.9438   -0.0743    0.0000 C.3     1  UNL1       -0.0105
     19 C           8.3858   -0.5604    0.0000 C.3     1  UNL1        0.1391
     20 C           6.3939   -1.1793    0.0000 C.3     1  UNL1       -0.0531
     21 C           8.3419    0.4465    0.0000 C.3     1  UNL1       -0.0531
     22 C           3.0000    1.5025    0.0000 C.3     1  UNL1        0.0311
     23 C           7.4918   -2.1228    0.0000 C.2     1  UNL1        0.3398
     24 C           5.7197    1.9744    0.0000 C.3     1  UNL1       -0.0555
     25 C           4.8749    2.5659    0.0000 C.2     1  UNL1       -0.0742
     26 C           9.2460   -0.0504    0.0000 C.ar    1  UNL1        0.0310
     27 C           3.0000    2.5875    0.0000 C.2     1  UNL1        0.1617
     28 C           3.9438    3.1228    0.0000 C.2     1  UNL1       -0.0221
     29 C           2.0000    1.4987    0.0000 C.3     1  UNL1       -0.0525
     30 C           2.5033    0.6346    0.0000 C.3     1  UNL1       -0.0525
     31 C           4.0012   -2.0981    0.0000 C.2     1  UNL1        0.3042
     32 C          10.1642   -0.4465    0.0000 C.ar    1  UNL1       -0.0172
     33 C           9.3390    0.9453    0.0000 C.ar    1  UNL1        0.0984
     34 C          10.8247    0.3043    0.0000 C.ar    1  UNL1        0.0921
     35 C           4.0128   -3.0980    0.0000 C.3     1  UNL1        0.0332
     36 H           6.4799    0.5215    0.0000 H       1  UNL1        0.0316
     37 H           6.1604   -2.3262    0.0000 H       1  UNL1        0.0743
     38 H           5.3909   -0.8909    0.0000 H       1  UNL1        0.0740
     39 H           7.0083    1.9214    0.0000 H       1  UNL1        0.0269
     40 H           6.2113    1.9214    0.0000 H       1  UNL1        0.0269
     41 H           8.0864    0.8388    0.0000 H       1  UNL1        0.0273
     42 H           7.6879    1.5291    0.0000 H       1  UNL1        0.0273
     43 H           3.2093    0.5395    0.0000 H       1  UNL1        0.0320
     44 H           3.3329    0.0318    0.0000 H       1  UNL1        0.0304
     45 H           3.7347   -0.6580    0.0000 H       1  UNL1        0.0304
     46 H           8.9257   -0.8652    0.0000 H       1  UNL1        0.0793
     47 H           5.8570   -1.4893    0.0000 H       1  UNL1        0.0237
     48 H           6.7040   -1.7162    0.0000 H       1  UNL1        0.0237
     49 H           6.9308   -0.8692    0.0000 H       1  UNL1        0.0237
     50 H           8.6519   -0.0905    0.0000 H       1  UNL1        0.0237
     51 H           8.8788    0.7565    0.0000 H       1  UNL1        0.0237
     52 H           8.0319    0.9834    0.0000 H       1  UNL1        0.0237
     53 H           6.0256    1.4351    0.0000 H       1  UNL1        0.0238
     54 H           6.2590    2.2803    0.0000 H       1  UNL1        0.0238
     55 H           5.4138    2.5138    0.0000 H       1  UNL1        0.0238
     56 H           5.4178    2.8654    0.0000 H       1  UNL1        0.0579
     57 H           3.9510    3.7427    0.0000 H       1  UNL1        0.0649
     58 H           1.9652    0.9425    0.0000 H       1  UNL1        0.0239
     59 H           2.1954    0.0965    0.0000 H       1  UNL1        0.0239
     60 H           3.0415    0.3267    0.0000 H       1  UNL1        0.0239
     61 H           1.9976    2.1187    0.0000 H       1  UNL1        0.0239
     62 H           1.3800    1.4963    0.0000 H       1  UNL1        0.0239
     63 H           2.0024    0.8787    0.0000 H       1  UNL1        0.0239
     64 H          10.3001   -1.0514    0.0000 H       1  UNL1        0.0653
     65 H           8.8735    1.3548    0.0000 H       1  UNL1        0.1033
     66 H          11.4420    0.2466    0.0000 H       1  UNL1        0.1029
     67 H           3.3928   -3.1052    0.0000 H       1  UNL1        0.0342
     68 H           4.0200   -3.7180    0.0000 H       1  UNL1        0.0342
     69 H           4.6328   -3.0908    0.0000 H       1  UNL1        0.0342
@<TRIPOS>BOND
     1     8     1    1
     2     1    12    1
     3     2    19    1
     4     2    23    1
     5    14     3    1
     6     3    31    1
     7     4    23    2
     8     5    27    2
     9     6    33   ar
    10     6    34   ar
    11     7    31    2
    12     8     9    1
    13     8    11    1
    14     8    12    1
    15     9    10    1
    16     9    14    1
    17     9    20    1
    18    10    13    1
    19    10    15    1
    20    10    36    1
    21    11    16    1
    22    11    19    1
    23    11    21    1
    24    12    23    1
    25    12    37    1
    26    13    17    1
    27    13    24    1
    28    13    25    1
    29    14    18    1
    30    14    38    1
    31    15    16    1
    32    15    39    1
    33    15    40    1
    34    16    41    1
    35    16    42    1
    36    17    18    1
    37    17    22    1
    38    17    43    1
    39    18    44    1
    40    18    45    1
    41    19    26    1
    42    19    46    1
    43    20    47    1
    44    20    48    1
    45    20    49    1
    46    21    50    1
    47    21    51    1
    48    21    52    1
    49    22    27    1
    50    22    29    1
    51    22    30    1
    52    24    53    1
    53    24    54    1
    54    24    55    1
    55    25    28    2
    56    25    56    1
    57    26    32   ar
    58    26    33   ar
    59    27    28    1
    60    28    57    1
    61    29    61    1
    62    29    62    1
    63    29    63    1
    64    30    58    1
    65    30    59    1
    66    30    60    1
    67    31    35    1
    68    32    34   ar
    69    32    64    1
    70    33    65    1
    71    34    66    1
    72    35    67    1
    73    35    68    1
    74    35    69    1
