@<TRIPOS>MOLECULE
IMPHY001180
 38 41 0 0 0
SMALL
GASTEIGER

@<TRIPOS>ATOM
      1 O           6.3981   -0.7500    0.0000 O.2     1  UNL1       -0.4508
      2 O          10.8084   -0.4453    0.0000 O.3     1  UNL1       -0.4526
      3 O          10.8084   -2.0547    0.0000 O.3     1  UNL1       -0.4526
      4 O           8.1301    1.2500    0.0000 O.3     1  UNL1       -0.4883
      5 O           2.8680   -0.7742    0.0000 O.3     1  UNL1       -0.4950
      6 O           6.3981    2.2500    0.0000 O.2     1  UNL1       -0.2831
      7 C           8.1301   -0.7500    0.0000 C.ar    1  UNL1        0.0247
      8 C           7.2641   -0.2500    0.0000 C.ar    1  UNL1        0.1809
      9 C           5.5320    0.7500    0.0000 C.ar    1  UNL1        0.0679
     10 C           5.5320   -0.2500    0.0000 C.ar    1  UNL1        0.1430
     11 C           7.2641    0.7500    0.0000 C.ar    1  UNL1        0.2105
     12 C           9.8622   -0.7500    0.0000 C.ar    1  UNL1        0.1669
     13 C           8.9962   -0.2500    0.0000 C.ar    1  UNL1       -0.0054
     14 C           9.8622   -1.7500    0.0000 C.ar    1  UNL1        0.1663
     15 C           6.3981    1.2500    0.0000 C.ar    1  UNL1        0.2345
     16 C           8.1301   -1.7500    0.0000 C.ar    1  UNL1       -0.0473
     17 C           8.9962   -2.2500    0.0000 C.ar    1  UNL1       -0.0155
     18 C           4.6381   -0.7847    0.0000 C.ar    1  UNL1        0.0231
     19 C           4.6381    1.2847    0.0000 C.ar    1  UNL1       -0.0438
     20 C           3.7320   -0.2708    0.0000 C.ar    1  UNL1        0.1236
     21 C          11.3920   -1.2500    0.0000 C.3     1  UNL1        0.2332
     22 C           3.7320    0.7708    0.0000 C.ar    1  UNL1       -0.0190
     23 C           8.1301    2.2500    0.0000 C.3     1  UNL1        0.0791
     24 C           2.0000   -0.2775    0.0000 C.3     1  UNL1        0.0788
     25 H           8.9962    0.3700    0.0000 H       1  UNL1        0.0662
     26 H           7.5932   -2.0600    0.0000 H       1  UNL1        0.0626
     27 H           8.9962   -2.8700    0.0000 H       1  UNL1        0.0655
     28 H           4.6453   -1.4046    0.0000 H       1  UNL1        0.0691
     29 H           4.6453    1.9046    0.0000 H       1  UNL1        0.0627
     30 H          11.8529   -1.6647    0.0000 H       1  UNL1        0.1166
     31 H          11.8529   -0.8353    0.0000 H       1  UNL1        0.1166
     32 H           3.1963    1.0829    0.0000 H       1  UNL1        0.0654
     33 H           8.7501    2.2500    0.0000 H       1  UNL1        0.0660
     34 H           8.1301    2.8700    0.0000 H       1  UNL1        0.0660
     35 H           7.5101    2.2500    0.0000 H       1  UNL1        0.0660
     36 H           2.3079    0.2606    0.0000 H       1  UNL1        0.0660
     37 H           1.4619    0.0304    0.0000 H       1  UNL1        0.0660
     38 H           1.6921   -0.8156    0.0000 H       1  UNL1        0.0660
@<TRIPOS>BOND
     1     1     8   ar
     2     1    10   ar
     3     2    12    1
     4     2    21    1
     5     3    14    1
     6     3    21    1
     7     4    11    1
     8     4    23    1
     9     5    20    1
    10     5    24    1
    11     6    15    2
    12     7     8    1
    13     7    13   ar
    14     7    16   ar
    15     8    11   ar
    16     9    10   ar
    17     9    15   ar
    18     9    19   ar
    19    10    18   ar
    20    11    15   ar
    21    12    13   ar
    22    12    14   ar
    23    13    25    1
    24    14    17   ar
    25    16    17   ar
    26    16    26    1
    27    17    27    1
    28    18    20   ar
    29    18    28    1
    30    19    22   ar
    31    19    29    1
    32    20    22   ar
    33    21    30    1
    34    21    31    1
    35    22    32    1
    36    23    33    1
    37    23    34    1
    38    23    35    1
    39    24    36    1
    40    24    37    1
    41    24    38    1
