@<TRIPOS>MOLECULE
IMPHY010637
 32 35 0 0 0
SMALL
GASTEIGER

@<TRIPOS>ATOM
      1 O           6.0010    1.2704    0.0000 O.3     1  UNL1       -0.3158
      2 O           4.2690    1.2704    0.0000 O.3     1  UNL1       -0.4471
      3 O           6.0010    4.2704    0.0000 O.3     1  UNL1       -0.2173
      4 O           4.2690    3.2704    0.0000 O.3     1  UNL1       -0.2135
      5 O           7.7331    3.2704    0.0000 O.3     1  UNL1       -0.2176
      6 O           6.8671   -1.2296    0.0000 O.2     1  UNL1       -0.4498
      7 O           2.5369    0.2704    0.0000 O.3     1  UNL1       -0.2799
      8 O           2.5369   -1.7296    0.0000 O.3     1  UNL1       -0.2830
      9 O           5.1350   -3.2296    0.0000 O.3     1  UNL1       -0.2798
     10 O           6.8671   -4.2296    0.0000 O.2     1  UNL1       -0.2828
     11 O           8.6155   -4.2642    0.0000 O.3     1  UNL1       -0.2862
     12 O          10.3972   -1.2055    0.0000 O.3     1  UNL1       -0.2864
     13 C           6.0010    3.2704    0.0000 C.3     1  UNL1        0.2211
     14 C           5.1350    2.7704    0.0000 C.3     1  UNL1        0.2542
     15 C           6.8671    2.7704    0.0000 C.3     1  UNL1        0.2144
     16 C           5.1350    1.7704    0.0000 C.3     1  UNL1        0.3219
     17 C           6.8671    1.7704    0.0000 C.3     1  UNL1        0.1814
     18 C           4.2690    0.2704    0.0000 C.ar    1  UNL1        0.1834
     19 C           5.1350   -0.2296    0.0000 C.ar    1  UNL1        0.0437
     20 C           5.1350   -1.2296    0.0000 C.ar    1  UNL1        0.0443
     21 C           3.4030   -0.2296    0.0000 C.ar    1  UNL1        0.2678
     22 C           6.0010   -1.7296    0.0000 C.ar    1  UNL1        0.1873
     23 C           3.4030   -1.2296    0.0000 C.ar    1  UNL1        0.2374
     24 C           4.2690   -1.7296    0.0000 C.ar    1  UNL1        0.0487
     25 C           7.7331   -2.7296    0.0000 C.ar    1  UNL1        0.1158
     26 C           6.0010   -2.7296    0.0000 C.ar    1  UNL1        0.2685
     27 C           7.7331   -1.7296    0.0000 C.ar    1  UNL1        0.1549
     28 C           6.8671   -3.2296    0.0000 C.ar    1  UNL1        0.2433
     29 C           8.6270   -3.2643    0.0000 C.ar    1  UNL1        0.2050
     30 C           8.6270   -1.1949    0.0000 C.ar    1  UNL1        0.0798
     31 C           9.5331   -1.7088    0.0000 C.ar    1  UNL1        0.2020
     32 C           9.5331   -2.7504    0.0000 C.ar    1  UNL1        0.0843
@<TRIPOS>BOND
     1     1    16    1
     2     1    17    1
     3     2    18    1
     4     6    22   ar
     5     6    27   ar
     6     7    21    1
     7     8    23    1
     8     9    26    1
     9    10    28    2
    10    11    29    1
    11    12    31    1
    12    13     3    1
    13    13    14    1
    14    13    15    1
    15    14     4    1
    16    14    16    1
    17    15     5    1
    18    15    17    1
    19    16     2    1
    20    18    19   ar
    21    18    21   ar
    22    19    20   ar
    23    20    22    1
    24    20    24   ar
    25    21    23   ar
    26    22    26   ar
    27    23    24   ar
    28    25    27   ar
    29    25    28   ar
    30    25    29   ar
    31    26    28   ar
    32    27    30   ar
    33    29    32   ar
    34    30    31   ar
    35    31    32   ar
