@<TRIPOS>MOLECULE
IMPHY003557
 33 34 0 0 0
SMALL
GASTEIGER

@<TRIPOS>ATOM
      1 O           4.2690   -0.2500    0.0000 O.3     1  UNL1       -0.4185
      2 O           2.5369   -1.2500    0.0000 O.3     1  UNL1       -0.5009
      3 O           2.5369   -3.2500    0.0000 O.3     1  UNL1       -0.5032
      4 O           3.4030    3.2500    0.0000 O.3     1  UNL1       -0.5032
      5 O           6.8671    3.2500    0.0000 O.3     1  UNL1       -0.5032
      6 O           5.1350    4.2500    0.0000 O.3     1  UNL1       -0.5009
      7 O           6.0010   -0.2500    0.0000 O.2     1  UNL1       -0.2445
      8 O           6.0010   -4.2500    0.0000 O.3     1  UNL1       -0.4771
      9 O           6.8671   -2.7500    0.0000 O.2     1  UNL1       -0.2451
     10 C           4.2690   -1.2500    0.0000 C.ar    1  UNL1        0.1776
     11 C           5.1350    1.2500    0.0000 C.ar    1  UNL1        0.0665
     12 C           3.4030   -1.7500    0.0000 C.ar    1  UNL1        0.2016
     13 C           5.1350   -2.7500    0.0000 C.ar    1  UNL1        0.0660
     14 C           5.1350   -1.7500    0.0000 C.ar    1  UNL1       -0.0014
     15 C           3.4030   -2.7500    0.0000 C.ar    1  UNL1        0.1628
     16 C           6.0010    1.7500    0.0000 C.ar    1  UNL1       -0.0023
     17 C           4.2690    1.7500    0.0000 C.ar    1  UNL1       -0.0023
     18 C           4.2690   -3.2500    0.0000 C.ar    1  UNL1       -0.0023
     19 C           5.1350    0.2500    0.0000 C.2     1  UNL1        0.3448
     20 C           4.2690    2.7500    0.0000 C.ar    1  UNL1        0.1628
     21 C           6.0010    2.7500    0.0000 C.ar    1  UNL1        0.1628
     22 C           5.1350    3.2500    0.0000 C.ar    1  UNL1        0.2006
     23 C           6.0010   -3.2500    0.0000 C.2     1  UNL1        0.3370
     24 H           5.6720   -1.4400    0.0000 H       1  UNL1        0.0664
     25 H           6.5380    1.4400    0.0000 H       1  UNL1        0.0663
     26 H           3.7320    1.4400    0.0000 H       1  UNL1        0.0663
     27 H           4.2690   -3.8700    0.0000 H       1  UNL1        0.0663
     28 H           2.0000   -1.5600    0.0000 H       1  UNL1        0.2924
     29 H           2.5369   -3.8700    0.0000 H       1  UNL1        0.2923
     30 H           2.8660    2.9400    0.0000 H       1  UNL1        0.2923
     31 H           7.4040    2.9400    0.0000 H       1  UNL1        0.2923
     32 H           5.6720    4.5600    0.0000 H       1  UNL1        0.2924
     33 H           6.5380   -4.5600    0.0000 H       1  UNL1        0.2954
@<TRIPOS>BOND
     1     1    10    1
     2     1    19    1
     3     2    12    1
     4     2    28    1
     5     3    15    1
     6     3    29    1
     7     4    20    1
     8     4    30    1
     9     5    21    1
    10     5    31    1
    11     6    22    1
    12     6    32    1
    13     7    19    2
    14     8    23    1
    15     8    33    1
    16     9    23    2
    17    10    12   ar
    18    10    14   ar
    19    11    16   ar
    20    11    17   ar
    21    11    19    1
    22    12    15   ar
    23    13    14   ar
    24    13    18   ar
    25    13    23    1
    26    14    24    1
    27    15    18   ar
    28    16    21   ar
    29    16    25    1
    30    17    20   ar
    31    17    26    1
    32    18    27    1
    33    20    22   ar
    34    21    22   ar
