@<TRIPOS>MOLECULE
IMPHY013154
 44 47 0 0 0
SMALL
GASTEIGER

@<TRIPOS>ATOM
      1 O           6.1940   -2.3139    0.0000 O.3     1  UNL1       -0.4830
      2 O           8.3380   -0.2454    0.0000 O.3     1  UNL1       -0.4907
      3 O           2.7044   -1.4096    0.0000 O.3     1  UNL1       -0.5064
      4 O          10.9775   -2.5896    0.0000 O.3     1  UNL1       -0.5066
      5 C           6.6907   -0.7806    0.0000 C.3     1  UNL1        0.0630
      6 C           6.9997   -1.7317    0.0000 C.3     1  UNL1        0.1385
      7 C           5.6966   -0.7832    0.0000 C.ar    1  UNL1        0.0050
      8 C           7.3598   -0.0375    0.0000 C.3     1  UNL1        0.1002
      9 C           7.9778   -1.9396    0.0000 C.ar    1  UNL1        0.0352
     10 C           5.3902   -1.7289    0.0000 C.ar    1  UNL1        0.1286
     11 C           8.6470   -1.1965    0.0000 C.ar    1  UNL1        0.1307
     12 C           5.0150   -0.0037    0.0000 C.ar    1  UNL1       -0.0477
     13 C           4.0007   -0.2121    0.0000 C.ar    1  UNL1       -0.0017
     14 C           4.3810   -1.9606    0.0000 C.ar    1  UNL1        0.0221
     15 C           8.2844   -2.9351    0.0000 C.ar    1  UNL1       -0.0481
     16 C           3.6816   -1.1971    0.0000 C.ar    1  UNL1        0.1238
     17 C           9.6690   -1.3973    0.0000 C.ar    1  UNL1        0.0219
     18 C           3.3338    0.5331    0.0000 C.3     1  UNL1       -0.0058
     19 C           9.3016   -3.1595    0.0000 C.ar    1  UNL1       -0.0196
     20 C           9.9986   -2.3854    0.0000 C.ar    1  UNL1        0.1204
     21 C           3.6457    1.4832    0.0000 C.2     1  UNL1       -0.0809
     22 C           2.9788    2.2284    0.0000 C.2     1  UNL1       -0.0793
     23 C           3.2906    3.1785    0.0000 C.3     1  UNL1       -0.0440
     24 C           2.0000    2.0234    0.0000 C.3     1  UNL1       -0.0440
     25 H           6.3439   -0.0046    0.0000 H       1  UNL1        0.0423
     26 H           7.1753   -2.5633    0.0000 H       1  UNL1        0.0793
     27 H           7.5921    0.5374    0.0000 H       1  UNL1        0.0704
     28 H           6.8340    0.2911    0.0000 H       1  UNL1        0.0704
     29 H           5.2129    0.5839    0.0000 H       1  UNL1        0.0625
     30 H           4.1968   -2.5526    0.0000 H       1  UNL1        0.0691
     31 H           7.8642   -3.3910    0.0000 H       1  UNL1        0.0624
     32 H          10.0786   -0.9318    0.0000 H       1  UNL1        0.0691
     33 H           2.7873    0.8258    0.0000 H       1  UNL1        0.0357
     34 H           2.9506    0.0457    0.0000 H       1  UNL1        0.0357
     35 H           9.4909   -3.7499    0.0000 H       1  UNL1        0.0654
     36 H           4.2525    1.6103    0.0000 H       1  UNL1        0.0575
     37 H           2.5156   -2.0002    0.0000 H       1  UNL1        0.2921
     38 H          11.1714   -3.1785    0.0000 H       1  UNL1        0.2921
     39 H           3.8797    2.9851    0.0000 H       1  UNL1        0.0274
     40 H           3.4840    3.7676    0.0000 H       1  UNL1        0.0274
     41 H           2.7015    3.3718    0.0000 H       1  UNL1        0.0274
     42 H           1.8729    2.6302    0.0000 H       1  UNL1        0.0274
     43 H           1.3932    1.8963    0.0000 H       1  UNL1        0.0274
     44 H           2.1271    1.4165    0.0000 H       1  UNL1        0.0274
@<TRIPOS>BOND
     1     1     6    1
     2     1    10    1
     3     2     8    1
     4     2    11    1
     5     3    16    1
     6     3    37    1
     7     4    20    1
     8     4    38    1
     9     5     6    1
    10     5     7    1
    11     5     8    1
    12     5    25    1
    13     6     9    1
    14     6    26    1
    15     7    10   ar
    16     7    12   ar
    17     8    27    1
    18     8    28    1
    19     9    11   ar
    20     9    15   ar
    21    10    14   ar
    22    11    17   ar
    23    12    13   ar
    24    12    29    1
    25    13    16   ar
    26    13    18    1
    27    14    16   ar
    28    14    30    1
    29    15    19   ar
    30    15    31    1
    31    17    20   ar
    32    17    32    1
    33    18    21    1
    34    18    33    1
    35    18    34    1
    36    19    20   ar
    37    19    35    1
    38    21    22    2
    39    21    36    1
    40    22    23    1
    41    22    24    1
    42    23    39    1
    43    23    40    1
    44    23    41    1
    45    24    42    1
    46    24    43    1
    47    24    44    1
