@<TRIPOS>MOLECULE
IMPHY003857
 34 38 0 0 0
SMALL
GASTEIGER

@<TRIPOS>ATOM
      1 C           3.4982   -9.1235    0.0000 C.3     1  UNL1        0.1560
      2 C           3.4982   -8.2985    0.0000 C.3     1  UNL1        0.0335
      3 C           4.2140   -7.8860    0.0000 C.3     1  UNL1        0.0060
      4 C           4.2140   -9.5360    0.0000 C.3     1  UNL1        0.0545
      5 C           4.9299   -9.1235    0.0000 C.2     1  UNL1       -0.0469
      6 C           5.6416   -9.5360    0.0000 C.2     1  UNL1       -0.0349
      7 C           6.3575   -9.1235    0.0000 C.3     1  UNL1        0.0209
      8 C           6.3575   -8.2985    0.0000 C.3     1  UNL1       -0.0214
      9 H           6.3575   -7.4735    0.0000 H       1  UNL1        0.0316
     10 C           7.0733   -7.8860    0.0000 C.3     1  UNL1       -0.0199
     11 H           7.0733   -8.7110    0.0000 H       1  UNL1        0.0316
     12 C           7.8580   -8.1389    0.0000 C.3     1  UNL1        0.0287
     13 C           8.3427   -7.4735    0.0000 C.3     1  UNL1        0.1516
     14 N           8.2181   -4.5962    0.0000 N.3     1  UNL1       -0.2247
     15 C           7.8585   -3.8535    0.0000 C.3     1  UNL1        0.0882
     16 C           7.0365   -3.7934    0.0000 C.3     1  UNL1        0.0174
     17 C           6.6769   -3.0508    0.0000 C.3     1  UNL1        0.0015
     18 C           6.5700   -4.4747    0.0000 C.3     1  UNL1        0.0025
     19 C           6.9296   -5.2173    0.0000 C.3     1  UNL1        0.0121
     20 C           7.7556   -5.2786    0.0000 C.3     1  UNL1        0.0409
     21 C           8.1101   -6.0241    0.0000 C.3     1  UNL1        0.0135
     22 C           9.0127   -6.1177    0.0000 C.3     1  UNL1        0.0011
     23 C           7.8580   -6.8081    0.0000 C.3     1  UNL1        0.0311
     24 C           7.0733   -7.0610    0.0000 C.3     1  UNL1       -0.0012
     25 C           7.0733   -6.2360    0.0000 C.3     1  UNL1       -0.0002
     26 C           6.3575   -6.6485    0.0000 C.3     1  UNL1       -0.0005
     27 C           5.6416   -7.0610    0.0000 C.3     1  UNL1       -0.0039
     28 C           5.6416   -7.8860    0.0000 C.3     1  UNL1       -0.0192
     29 C           4.9299   -8.2985    0.0000 C.3     1  UNL1        0.0114
     30 C           4.9299   -7.4735    0.0000 C.3     1  UNL1        0.0037
     31 O           2.7865   -9.5360    0.0000 O.3     1  UNL1       -0.2228
     32 O           9.1677   -7.4735    0.0000 O.3     1  UNL1       -0.2232
     33 H           5.6416   -8.7110    0.0000 H       1  UNL1        0.0318
     34 H           8.5792   -5.2750    0.0000 H       1  UNL1        0.0489
@<TRIPOS>BOND
     1     1     2    1
     2     2     3    1
     3     1     4    1
     4     4     5    1
     5     5     6    2
     6     6     7    1
     7     7     8    1
     8     8     9    1
     9     8    10    1
    10    10    11    1
    11    10    12    1
    12    12    13    1
    13    14    15    1
    14    15    16    1
    15    16    17    1
    16    16    18    1
    17    18    19    1
    18    19    20    1
    19    20    14    1
    20    20    21    1
    21    21    22    1
    22    21    23    1
    23    13    23    1
    24    23    24    1
    25    10    24    1
    26    24    25    1
    27    24    26    1
    28    26    27    1
    29    27    28    1
    30     8    28    1
    31    28    29    1
    32     3    29    1
    33     5    29    1
    34    29    30    1
    35     1    31    1
    36    13    32    1
    37    28    33    1
    38    20    34    1
