@<TRIPOS>MOLECULE
IMPHY005050
 34 36 0 0 0
SMALL
GASTEIGER

@<TRIPOS>ATOM
      1 O           4.6051   -1.6174    0.0000 O.3     1  UNL1       -0.4525
      2 O           2.5836    1.1591    0.0000 O.2     1  UNL1       -0.4671
      3 O           6.0938   -2.5865    0.0000 O.2     1  UNL1       -0.2453
      4 C           5.2619    0.8544    0.0000 C.3     1  UNL1        0.0032
      5 C           5.2619   -0.1456    0.0000 C.3     1  UNL1        0.0410
      6 C           4.3958   -0.6456    0.0000 C.3     1  UNL1        0.1395
      7 C           4.3958    1.3544    0.0000 C.3     1  UNL1        0.0154
      8 C           3.5298   -0.1456    0.0000 C.ar    1  UNL1        0.0372
      9 C           3.5298    0.8544    0.0000 C.ar    1  UNL1        0.1126
     10 C           5.9989   -0.8127    0.0000 C.2     1  UNL1        0.0373
     11 C           6.2619    0.8544    0.0000 C.3     1  UNL1       -0.0550
     12 C           5.7619    1.7204    0.0000 C.2     1  UNL1       -0.0841
     13 C           2.5836   -0.4503    0.0000 C.ar    1  UNL1       -0.0058
     14 C           5.5938   -1.7204    0.0000 C.2     1  UNL1        0.3356
     15 C           2.0000    0.3544    0.0000 C.ar    1  UNL1        0.0954
     16 C           6.9774   -0.6064    0.0000 C.2     1  UNL1       -0.0883
     17 C           2.2729   -1.4008    0.0000 C.3     1  UNL1       -0.0363
     18 C           5.2619    2.5865    0.0000 C.2     1  UNL1       -0.1021
     19 H           6.0388    0.1991    0.0000 H       1  UNL1        0.0399
     20 H           3.7088   -1.1461    0.0000 H       1  UNL1        0.0793
     21 H           4.7944    1.8294    0.0000 H       1  UNL1        0.0352
     22 H           3.9973    1.8294    0.0000 H       1  UNL1        0.0352
     23 H           6.2619    0.2344    0.0000 H       1  UNL1        0.0238
     24 H           6.8819    0.8544    0.0000 H       1  UNL1        0.0238
     25 H           6.2619    1.4744    0.0000 H       1  UNL1        0.0238
     26 H           6.3819    1.7204    0.0000 H       1  UNL1        0.0572
     27 H           1.3800    0.3544    0.0000 H       1  UNL1        0.1032
     28 H           7.3915   -1.0679    0.0000 H       1  UNL1        0.0540
     29 H           7.1700   -0.0171    0.0000 H       1  UNL1        0.0540
     30 H           1.6836   -1.2082    0.0000 H       1  UNL1        0.0279
     31 H           2.0803   -1.9902    0.0000 H       1  UNL1        0.0279
     32 H           2.8623   -1.5934    0.0000 H       1  UNL1        0.0279
     33 H           5.5719    3.1234    0.0000 H       1  UNL1        0.0532
     34 H           4.6419    2.5865    0.0000 H       1  UNL1        0.0532
@<TRIPOS>BOND
     1     1     6    1
     2     1    14    1
     3     2     9   ar
     4     2    15   ar
     5     3    14    2
     6     4     5    1
     7     4     7    1
     8     4    11    1
     9     4    12    1
    10     5     6    1
    11     5    10    1
    12     5    19    1
    13     6     8    1
    14     6    20    1
    15     7     9    1
    16     7    21    1
    17     7    22    1
    18     8     9   ar
    19     8    13   ar
    20    10    14    1
    21    10    16    2
    22    11    23    1
    23    11    24    1
    24    11    25    1
    25    12    18    2
    26    12    26    1
    27    13    15   ar
    28    13    17    1
    29    15    27    1
    30    16    28    1
    31    16    29    1
    32    17    30    1
    33    17    31    1
    34    17    32    1
    35    18    33    1
    36    18    34    1
