@<TRIPOS>MOLECULE
IMPHY000049
 38 41 0 0 0
SMALL
GASTEIGER

@<TRIPOS>ATOM
      1 O           3.9061   -1.0347    0.0000 O.3     1  UNL1       -0.4777
      2 O           7.4260   -1.0347    0.0000 O.2     1  UNL1       -0.4507
      3 O           5.6660    2.0000    0.0000 O.3     1  UNL1       -0.5052
      4 O           5.6660   -2.0000    0.0000 O.3     1  UNL1       -0.5009
      5 O           7.4144    2.0346    0.0000 O.2     1  UNL1       -0.2863
      6 O          11.0711    1.0458    0.0000 O.3     1  UNL1       -0.5067
      7 C           3.0000   -0.5208    0.0000 C.3     1  UNL1        0.1237
      8 C           4.8000    0.5000    0.0000 C.ar    1  UNL1        0.0625
      9 C           4.8000   -0.5000    0.0000 C.ar    1  UNL1        0.1773
     10 C           3.0000    0.5208    0.0000 C.2     1  UNL1       -0.0408
     11 C           6.5320    0.5000    0.0000 C.ar    1  UNL1        0.1103
     12 C           6.5320   -0.5000    0.0000 C.ar    1  UNL1        0.1877
     13 C           5.6660    1.0000    0.0000 C.ar    1  UNL1        0.1421
     14 C           5.6660   -1.0000    0.0000 C.ar    1  UNL1        0.2033
     15 C           3.9061    1.0347    0.0000 C.2     1  UNL1       -0.0477
     16 C           2.0000   -0.5247    0.0000 C.3     1  UNL1       -0.0215
     17 C           2.5033   -1.3888    0.0000 C.3     1  UNL1       -0.0215
     18 C           7.4260    1.0347    0.0000 C.ar    1  UNL1        0.2040
     19 C           8.3321    0.5208    0.0000 C.ar    1  UNL1        0.0681
     20 C           8.3321   -0.5208    0.0000 C.ar    1  UNL1        0.1397
     21 C           9.2632    1.0777    0.0000 C.ar    1  UNL1       -0.0058
     22 C           9.2632   -1.0777    0.0000 C.ar    1  UNL1       -0.0152
     23 C          10.2070    0.5425    0.0000 C.ar    1  UNL1        0.1178
     24 C          10.2070   -0.5425    0.0000 C.ar    1  UNL1       -0.0167
     25 H           2.4643    0.8329    0.0000 H       1  UNL1        0.0611
     26 H           3.9132    1.6546    0.0000 H       1  UNL1        0.0624
     27 H           1.9976    0.0953    0.0000 H       1  UNL1        0.0271
     28 H           1.3800   -0.5271    0.0000 H       1  UNL1        0.0271
     29 H           1.9652   -1.0808    0.0000 H       1  UNL1        0.0271
     30 H           2.1954   -1.9269    0.0000 H       1  UNL1        0.0271
     31 H           3.0415   -1.6967    0.0000 H       1  UNL1        0.0271
     32 H           2.0024   -1.1447    0.0000 H       1  UNL1        0.0271
     33 H           9.2560    1.6977    0.0000 H       1  UNL1        0.0662
     34 H           9.2560   -1.6977    0.0000 H       1  UNL1        0.0656
     35 H           5.1291    2.3100    0.0000 H       1  UNL1        0.2922
     36 H           5.1291   -2.3100    0.0000 H       1  UNL1        0.2924
     37 H          10.7427   -0.8546    0.0000 H       1  UNL1        0.0655
     38 H          11.6092    0.7379    0.0000 H       1  UNL1        0.2921
@<TRIPOS>BOND
     1     1     7    1
     2     1     9    1
     3     2    12   ar
     4     2    20   ar
     5     3    13    1
     6     3    35    1
     7     4    14    1
     8     4    36    1
     9     5    18    2
    10     6    23    1
    11     6    38    1
    12     7    10    1
    13     7    16    1
    14     7    17    1
    15     8     9   ar
    16     8    13   ar
    17     8    15    1
    18     9    14   ar
    19    10    15    2
    20    10    25    1
    21    11    12   ar
    22    11    13   ar
    23    11    18   ar
    24    12    14   ar
    25    15    26    1
    26    16    27    1
    27    16    28    1
    28    16    32    1
    29    17    29    1
    30    17    30    1
    31    17    31    1
    32    18    19   ar
    33    19    20   ar
    34    19    21   ar
    35    20    22   ar
    36    21    23   ar
    37    21    33    1
    38    22    24   ar
    39    22    34    1
    40    23    24   ar
    41    24    37    1
