@<TRIPOS>MOLECULE
IMPHY004569
 50 52 0 0 0
SMALL
GASTEIGER

@<TRIPOS>ATOM
      1 O           5.4641   -1.6550    0.0000 O.3     1  UNL1       -0.3313
      2 O           5.4641   -4.6550    0.0000 O.3     1  UNL1       -0.3864
      3 O           3.7320   -3.6550    0.0000 O.3     1  UNL1       -0.3865
      4 O           7.1962   -1.6550    0.0000 O.3     1  UNL1       -0.4607
      5 O           7.1962   -3.6550    0.0000 O.3     1  UNL1       -0.3829
      6 O           3.7320   -0.6550    0.0000 O.3     1  UNL1       -0.3924
      7 O           8.9282    1.3450    0.0000 O.3     1  UNL1       -0.5066
      8 O           2.0000    4.3450    0.0000 O.3     1  UNL1       -0.5068
      9 C           5.4641   -3.6550    0.0000 C.3     1  UNL1        0.1152
     10 C           4.5981   -3.1550    0.0000 C.3     1  UNL1        0.1120
     11 C           4.5981   -2.1550    0.0000 C.3     1  UNL1        0.1140
     12 C           6.3301   -3.1550    0.0000 C.3     1  UNL1        0.1454
     13 C           6.3301   -2.1550    0.0000 C.3     1  UNL1        0.2308
     14 C           3.7320   -1.6550    0.0000 C.3     1  UNL1        0.0731
     15 C           7.1962   -0.6550    0.0000 C.ar    1  UNL1        0.1280
     16 C           6.3301   -0.1550    0.0000 C.ar    1  UNL1       -0.0124
     17 C           8.0622   -0.1550    0.0000 C.ar    1  UNL1        0.0217
     18 C           6.3301    0.8450    0.0000 C.ar    1  UNL1       -0.0181
     19 C           8.0622    0.8450    0.0000 C.ar    1  UNL1        0.1209
     20 C           7.1962    1.3450    0.0000 C.ar    1  UNL1       -0.0128
     21 C           5.4641    1.3450    0.0000 C.2     1  UNL1       -0.0538
     22 C           5.4641    2.3450    0.0000 C.2     1  UNL1       -0.0540
     23 C           4.5981    2.8450    0.0000 C.ar    1  UNL1       -0.0248
     24 C           3.7320    2.3450    0.0000 C.ar    1  UNL1       -0.0511
     25 C           4.5981    3.8450    0.0000 C.ar    1  UNL1       -0.0511
     26 C           2.8660    2.8450    0.0000 C.ar    1  UNL1       -0.0196
     27 C           3.7320    4.3450    0.0000 C.ar    1  UNL1       -0.0196
     28 C           2.8660    3.8450    0.0000 C.ar    1  UNL1        0.1169
     29 H           4.9272   -3.9650    0.0000 H       1  UNL1        0.0648
     30 H           4.5981   -3.7750    0.0000 H       1  UNL1        0.0647
     31 H           4.5981   -1.5350    0.0000 H       1  UNL1        0.0647
     32 H           6.3301   -3.7750    0.0000 H       1  UNL1        0.0683
     33 H           6.3301   -1.5350    0.0000 H       1  UNL1        0.1084
     34 H           3.1215   -1.5473    0.0000 H       1  UNL1        0.0584
     35 H           3.5200   -2.2376    0.0000 H       1  UNL1        0.0584
     36 H           4.9272   -4.9650    0.0000 H       1  UNL1        0.2100
     37 H           3.1951   -3.3450    0.0000 H       1  UNL1        0.2100
     38 H           7.7331   -3.3450    0.0000 H       1  UNL1        0.2102
     39 H           3.1951   -0.3450    0.0000 H       1  UNL1        0.2095
     40 H           5.7932   -0.4650    0.0000 H       1  UNL1        0.0660
     41 H           8.5991   -0.4650    0.0000 H       1  UNL1        0.0691
     42 H           7.1962    1.9650    0.0000 H       1  UNL1        0.0660
     43 H           4.9272    1.0350    0.0000 H       1  UNL1        0.0624
     44 H           6.0010    2.6550    0.0000 H       1  UNL1        0.0624
     45 H           8.9282    1.9650    0.0000 H       1  UNL1        0.2921
     46 H           3.7320    1.7250    0.0000 H       1  UNL1        0.0625
     47 H           5.1350    4.1550    0.0000 H       1  UNL1        0.0625
     48 H           2.3291    2.5350    0.0000 H       1  UNL1        0.0654
     49 H           3.7320    4.9650    0.0000 H       1  UNL1        0.0654
     50 H           2.0000    4.9650    0.0000 H       1  UNL1        0.2921
@<TRIPOS>BOND
     1     1    11    1
     2     1    13    1
     3     9     2    1
     4     2    36    1
     5    10     3    1
     6     3    37    1
     7    13     4    1
     8     4    15    1
     9    12     5    1
    10     5    38    1
    11     6    14    1
    12     6    39    1
    13     7    19    1
    14     7    45    1
    15     8    28    1
    16     8    50    1
    17     9    10    1
    18     9    12    1
    19     9    29    1
    20    10    11    1
    21    10    30    1
    22    11    14    1
    23    11    31    1
    24    12    13    1
    25    12    32    1
    26    13    33    1
    27    14    34    1
    28    14    35    1
    29    15    16   ar
    30    15    17   ar
    31    16    18   ar
    32    16    40    1
    33    17    19   ar
    34    17    41    1
    35    18    20   ar
    36    18    21    1
    37    19    20   ar
    38    20    42    1
    39    21    22    2
    40    21    43    1
    41    22    23    1
    42    22    44    1
    43    23    24   ar
    44    23    25   ar
    45    24    26   ar
    46    24    46    1
    47    25    27   ar
    48    25    47    1
    49    26    28   ar
    50    26    48    1
    51    27    28   ar
    52    27    49    1
