@<TRIPOS>MOLECULE
IMPHY005626
 39 38 0 0 0
SMALL
GASTEIGER

@<TRIPOS>ATOM
      1 O           4.5981   -0.6900    0.0000 O.3     1  UNL1       -0.3947
      2 C           5.4641    0.8100    0.0000 C.3     1  UNL1       -0.0178
      3 C           6.3301    1.3100    0.0000 C.3     1  UNL1       -0.0481
      4 C           4.5981    1.3100    0.0000 C.3     1  UNL1       -0.0481
      5 C           7.1962    0.8100    0.0000 C.3     1  UNL1       -0.0527
      6 C           8.0622    1.3100    0.0000 C.3     1  UNL1       -0.0531
      7 C           3.7320    0.8100    0.0000 C.3     1  UNL1       -0.0530
      8 C           5.4641   -0.1900    0.0000 C.3     1  UNL1        0.0470
      9 C           8.9282    0.8100    0.0000 C.3     1  UNL1       -0.0533
     10 C           2.8660    1.3100    0.0000 C.3     1  UNL1       -0.0559
     11 C           9.7942    1.3100    0.0000 C.3     1  UNL1       -0.0559
     12 C           2.0000    0.8100    0.0000 C.3     1  UNL1       -0.0653
     13 C          10.6603    0.8100    0.0000 C.3     1  UNL1       -0.0653
     14 H           5.4641    1.6600    0.0000 H       1  UNL1        0.0323
     15 H           6.7287    1.7850    0.0000 H       1  UNL1        0.0269
     16 H           5.9316    1.7850    0.0000 H       1  UNL1        0.0269
     17 H           4.9966    1.7850    0.0000 H       1  UNL1        0.0269
     18 H           4.1996    1.7850    0.0000 H       1  UNL1        0.0269
     19 H           6.7976    0.3351    0.0000 H       1  UNL1        0.0265
     20 H           7.5947    0.3351    0.0000 H       1  UNL1        0.0265
     21 H           8.4607    1.7850    0.0000 H       1  UNL1        0.0265
     22 H           7.6636    1.7850    0.0000 H       1  UNL1        0.0265
     23 H           3.3335    0.3351    0.0000 H       1  UNL1        0.0265
     24 H           4.1306    0.3351    0.0000 H       1  UNL1        0.0265
     25 H           5.6762   -0.7726    0.0000 H       1  UNL1        0.0560
     26 H           6.0747   -0.0823    0.0000 H       1  UNL1        0.0560
     27 H           8.5297    0.3351    0.0000 H       1  UNL1        0.0265
     28 H           9.3267    0.3351    0.0000 H       1  UNL1        0.0265
     29 H           3.2646    1.7850    0.0000 H       1  UNL1        0.0263
     30 H           2.4675    1.7850    0.0000 H       1  UNL1        0.0263
     31 H          10.1928    1.7850    0.0000 H       1  UNL1        0.0263
     32 H           9.3957    1.7850    0.0000 H       1  UNL1        0.0263
     33 H           1.6900    1.3469    0.0000 H       1  UNL1        0.0230
     34 H           1.4631    0.5000    0.0000 H       1  UNL1        0.0230
     35 H           2.3100    0.2731    0.0000 H       1  UNL1        0.0230
     36 H           4.5981   -1.3100    0.0000 H       1  UNL1        0.2094
     37 H          10.3503    0.2731    0.0000 H       1  UNL1        0.0230
     38 H          11.1972    0.5000    0.0000 H       1  UNL1        0.0230
     39 H          10.9703    1.3469    0.0000 H       1  UNL1        0.0230
@<TRIPOS>BOND
     1     1     8    1
     2     1    36    1
     3     2     3    1
     4     2     4    1
     5     2     8    1
     6     2    14    1
     7     3     5    1
     8     3    15    1
     9     3    16    1
    10     4     7    1
    11     4    17    1
    12     4    18    1
    13     5     6    1
    14     5    19    1
    15     5    20    1
    16     6     9    1
    17     6    21    1
    18     6    22    1
    19     7    10    1
    20     7    23    1
    21     7    24    1
    22     8    25    1
    23     8    26    1
    24     9    11    1
    25     9    27    1
    26     9    28    1
    27    10    12    1
    28    10    29    1
    29    10    30    1
    30    11    13    1
    31    11    31    1
    32    11    32    1
    33    12    33    1
    34    12    34    1
    35    12    35    1
    36    13    37    1
    37    13    38    1
    38    13    39    1
