@<TRIPOS>MOLECULE
IMPHY015282
 35 34 0 0 0
SMALL
GASTEIGER

@<TRIPOS>ATOM
      1 O           8.0622   -0.2500    0.0000 O.3     1  UNL1       -0.4644
      2 O           8.9282    1.2500    0.0000 O.2     1  UNL1       -0.2509
      3 C           6.3301   -0.2500    0.0000 C.3     1  UNL1       -0.0095
      4 C           5.4641    0.2500    0.0000 C.3     1  UNL1       -0.0474
      5 C           4.5981   -0.2500    0.0000 C.3     1  UNL1       -0.0527
      6 C           3.7320    0.2500    0.0000 C.3     1  UNL1       -0.0533
      7 C           7.1962    0.2500    0.0000 C.3     1  UNL1        0.0950
      8 C           6.3301   -1.2500    0.0000 C.3     1  UNL1       -0.0593
      9 C           2.8660   -0.2500    0.0000 C.3     1  UNL1       -0.0559
     10 C           2.0000    0.2500    0.0000 C.3     1  UNL1       -0.0653
     11 C           8.9282    0.2500    0.0000 C.2     1  UNL1        0.3068
     12 C           9.7942   -0.2500    0.0000 C.3     1  UNL1        0.0421
     13 C          10.6603    0.2500    0.0000 C.3     1  UNL1       -0.0552
     14 H           6.8671   -0.5600    0.0000 H       1  UNL1        0.0331
     15 H           5.8626    0.7249    0.0000 H       1  UNL1        0.0269
     16 H           5.0656    0.7249    0.0000 H       1  UNL1        0.0269
     17 H           4.1996   -0.7249    0.0000 H       1  UNL1        0.0265
     18 H           4.9966   -0.7249    0.0000 H       1  UNL1        0.0265
     19 H           4.1306    0.7249    0.0000 H       1  UNL1        0.0265
     20 H           3.3335    0.7249    0.0000 H       1  UNL1        0.0265
     21 H           7.5947    0.7249    0.0000 H       1  UNL1        0.0700
     22 H           6.7976    0.7249    0.0000 H       1  UNL1        0.0700
     23 H           5.7101   -1.2500    0.0000 H       1  UNL1        0.0233
     24 H           6.3301   -1.8700    0.0000 H       1  UNL1        0.0233
     25 H           6.9501   -1.2500    0.0000 H       1  UNL1        0.0233
     26 H           2.4675   -0.7249    0.0000 H       1  UNL1        0.0263
     27 H           3.2646   -0.7249    0.0000 H       1  UNL1        0.0263
     28 H           2.3100    0.7869    0.0000 H       1  UNL1        0.0230
     29 H           1.4631    0.5600    0.0000 H       1  UNL1        0.0230
     30 H           1.6900   -0.2869    0.0000 H       1  UNL1        0.0230
     31 H           9.3957   -0.7249    0.0000 H       1  UNL1        0.0375
     32 H          10.1928   -0.7249    0.0000 H       1  UNL1        0.0375
     33 H          10.9703   -0.2869    0.0000 H       1  UNL1        0.0235
     34 H          11.1972    0.5600    0.0000 H       1  UNL1        0.0235
     35 H          10.3503    0.7869    0.0000 H       1  UNL1        0.0235
@<TRIPOS>BOND
     1     1     7    1
     2     1    11    1
     3     2    11    2
     4     3     4    1
     5     3     7    1
     6     3     8    1
     7     3    14    1
     8     4     5    1
     9     4    15    1
    10     4    16    1
    11     5     6    1
    12     5    17    1
    13     5    18    1
    14     6     9    1
    15     6    19    1
    16     6    20    1
    17     7    21    1
    18     7    22    1
    19     8    23    1
    20     8    24    1
    21     8    25    1
    22     9    10    1
    23     9    26    1
    24     9    27    1
    25    10    28    1
    26    10    29    1
    27    10    30    1
    28    11    12    1
    29    12    13    1
    30    12    31    1
    31    12    32    1
    32    13    33    1
    33    13    34    1
    34    13    35    1
