@<TRIPOS>MOLECULE
IMPHY004437
 50 51 0 0 0
SMALL
GASTEIGER

@<TRIPOS>ATOM
      1 O           7.7907   -3.1371    0.0000 O.co2   1  UNL1       -0.7743
      2 O           9.0476    0.1181    0.0000 O.3     1  UNL1       -0.3857
      3 O           5.5525    0.3309    0.0000 O.3     1  UNL1       -0.4579
      4 O           4.0574    0.5117    0.0000 O.3     1  UNL1       -0.3752
      5 O           2.9782    2.6488    0.0000 O.3     1  UNL1       -0.3766
      6 O           5.9126    2.0251    0.0000 O.2     1  UNL1       -0.2475
      7 N           7.7907   -2.1371    0.0000 N.3     1  UNL1        0.2272
      8 C           7.7907   -1.1371    0.0000 C.3     1  UNL1        0.0305
      9 C           8.7369   -0.8324    0.0000 C.3     1  UNL1        0.1065
     10 C           8.7369   -2.4418    0.0000 C.3     1  UNL1       -0.0291
     11 C           9.3205   -1.6371    0.0000 C.3     1  UNL1        0.0191
     12 C           6.8396   -2.4461    0.0000 C.3     1  UNL1       -0.0126
     13 C           6.8396   -0.8281    0.0000 C.2     1  UNL1        0.0183
     14 C           6.2519   -1.6371    0.0000 C.2     1  UNL1       -0.0317
     15 C           6.5306    0.1230    0.0000 C.3     1  UNL1        0.1190
     16 C           4.2653    1.4898    0.0000 C.3     1  UNL1        0.1903
     17 C           4.4732    2.4680    0.0000 C.3     1  UNL1       -0.0048
     18 C           5.2435    1.2819    0.0000 C.2     1  UNL1        0.3423
     19 C           3.2872    1.6978    0.0000 C.3     1  UNL1        0.0948
     20 C           3.7301    3.1371    0.0000 C.3     1  UNL1       -0.0594
     21 C           5.4243    2.7770    0.0000 C.3     1  UNL1       -0.0594
     22 C           2.6180    0.9546    0.0000 C.3     1  UNL1       -0.0354
     23 C           2.0000    2.8567    0.0000 C.3     1  UNL1        0.0369
     24 H           7.7918   -0.2871    0.0000 H       1  UNL1        0.0927
     25 H           8.2995   -0.3930    0.0000 H       1  UNL1        0.0655
     26 H           8.4859   -3.0088    0.0000 H       1  UNL1        0.0814
     27 H           9.2743   -2.7511    0.0000 H       1  UNL1        0.0814
     28 H           9.7814   -2.0518    0.0000 H       1  UNL1        0.0344
     29 H           9.7814   -1.2224    0.0000 H       1  UNL1        0.0344
     30 H           6.3027   -2.7561    0.0000 H       1  UNL1        0.0861
     31 H           7.0918   -3.0125    0.0000 H       1  UNL1        0.0861
     32 H           5.6319   -1.6371    0.0000 H       1  UNL1        0.0627
     33 H           7.1446    0.2092    0.0000 H       1  UNL1        0.0747
     34 H           6.5523    0.7426    0.0000 H       1  UNL1        0.0747
     35 H           9.6542    0.2460    0.0000 H       1  UNL1        0.2101
     36 H           3.8836    2.2764    0.0000 H       1  UNL1        0.0329
     37 H           3.7020    2.1585    0.0000 H       1  UNL1        0.0627
     38 H           4.1449    3.5979    0.0000 H       1  UNL1        0.0233
     39 H           3.2693    3.5520    0.0000 H       1  UNL1        0.0233
     40 H           3.3152    2.6764    0.0000 H       1  UNL1        0.0233
     41 H           5.6159    2.1874    0.0000 H       1  UNL1        0.0233
     42 H           6.0139    2.9686    0.0000 H       1  UNL1        0.0233
     43 H           5.2327    3.3667    0.0000 H       1  UNL1        0.0233
     44 H           2.1573    1.3695    0.0000 H       1  UNL1        0.0256
     45 H           2.2032    0.4939    0.0000 H       1  UNL1        0.0256
     46 H           3.0788    0.5397    0.0000 H       1  UNL1        0.0256
     47 H           3.4678    0.3201    0.0000 H       1  UNL1        0.2110
     48 H           2.1289    3.4632    0.0000 H       1  UNL1        0.0524
     49 H           1.3936    2.9856    0.0000 H       1  UNL1        0.0524
     50 H           1.8711    2.2503    0.0000 H       1  UNL1        0.0524
@<TRIPOS>UNITY_ATOM_ATTR
1 1
charge -1
7 1
charge 1
@<TRIPOS>BOND
     1     1     7    1
     2     9     2    1
     3     2    35    1
     4     3    15    1
     5     3    18    1
     6    16     4    1
     7     4    47    1
     8    19     5    1
     9     5    23    1
    10     6    18    2
    11     7     8    1
    12     7    10    1
    13     7    12    1
    14     8     9    1
    15     8    13    1
    16     8    24    1
    17     9    11    1
    18     9    25    1
    19    10    11    1
    20    10    26    1
    21    10    27    1
    22    11    28    1
    23    11    29    1
    24    12    14    1
    25    12    30    1
    26    12    31    1
    27    13    14    2
    28    13    15    1
    29    14    32    1
    30    15    33    1
    31    15    34    1
    32    16    17    1
    33    16    18    1
    34    16    19    1
    35    17    20    1
    36    17    21    1
    37    17    36    1
    38    19    22    1
    39    19    37    1
    40    20    38    1
    41    20    39    1
    42    20    40    1
    43    21    41    1
    44    21    42    1
    45    21    43    1
    46    22    44    1
    47    22    45    1
    48    22    46    1
    49    23    48    1
    50    23    49    1
    51    23    50    1
