@<TRIPOS>MOLECULE
IMPHY007962
 150 157 0 0 0
SMALL
GASTEIGER

@<TRIPOS>ATOM
      1 O           6.0026    4.5848    0.0000 O.3     1  UNL1       -0.3909
      2 O           6.8671   -3.1401    0.0000 O.3     1  UNL1       -0.3448
      3 O           8.6267    6.1361    0.0000 O.3     1  UNL1       -0.3756
      4 O           9.3112   -2.4484    0.0000 O.3     1  UNL1       -0.3481
      5 O           5.1350   -3.1401    0.0000 O.3     1  UNL1       -0.3405
      6 O          10.8179   -3.3028    0.0000 O.3     1  UNL1       -0.3405
      7 O           6.8671   -5.1401    0.0000 O.3     1  UNL1       -0.3378
      8 O           8.6036    9.1360    0.0000 O.3     1  UNL1       -0.3947
      9 O          10.2978   -0.7087    0.0000 O.3     1  UNL1       -0.3841
     10 O           5.1350   -6.1401    0.0000 O.3     1  UNL1       -0.3864
     11 O           3.4030   -5.1401    0.0000 O.3     1  UNL1       -0.3865
     12 O          12.2978   -0.6933    0.0000 O.3     1  UNL1       -0.3864
     13 O          13.3111   -2.4176    0.0000 O.3     1  UNL1       -0.3865
     14 O           6.0010   -6.6401    0.0000 O.3     1  UNL1       -0.3405
     15 O           2.5369   -3.6401    0.0000 O.3     1  UNL1       -0.3924
     16 O          13.3245   -4.1496    0.0000 O.3     1  UNL1       -0.3924
     17 O           8.5991   -6.1401    0.0000 O.3     1  UNL1       -0.3841
     18 O           8.5991   -8.1401    0.0000 O.3     1  UNL1       -0.3864
     19 O           6.8671   -9.1401    0.0000 O.3     1  UNL1       -0.3865
     20 O           4.2690   -7.6401    0.0000 O.3     1  UNL1       -0.3924
     21 C           7.7681    1.5601    0.0000 C.3     1  UNL1       -0.0230
     22 C           6.9040    1.0568    0.0000 C.3     1  UNL1       -0.0294
     23 C           7.7643    2.5601    0.0000 C.3     1  UNL1       -0.0212
     24 C           6.8920    0.0152    0.0000 C.3     1  UNL1       -0.0252
     25 C           7.7920   -0.5091    0.0000 C.3     1  UNL1       -0.0255
     26 C           6.8963    3.0568    0.0000 C.3     1  UNL1       -0.0085
     27 C           8.6801    1.0568    0.0000 C.3     1  UNL1       -0.0466
     28 C           6.0361    1.5534    0.0000 C.3     1  UNL1       -0.0488
     29 C           8.6921    0.0152    0.0000 C.3     1  UNL1       -0.0485
     30 C           7.8046   -1.5940    0.0000 C.3     1  UNL1        0.0210
     31 C           6.0322    2.5534    0.0000 C.3     1  UNL1       -0.0470
     32 C           8.6723    3.0705    0.0000 C.3     1  UNL1       -0.0461
     33 C           6.8762    4.0982    0.0000 C.3     1  UNL1        0.0663
     34 C           5.9421   -0.5091    0.0000 C.3     1  UNL1       -0.0447
     35 C           7.7722    4.6294    0.0000 C.3     1  UNL1        0.0204
     36 C           8.7522    1.7376    0.0000 C.3     1  UNL1       -0.0588
     37 C           8.6763    4.1121    0.0000 C.3     1  UNL1       -0.0424
     38 C           8.7497    2.3903    0.0000 C.3     1  UNL1       -0.0587
     39 C           6.8671   -2.1401    0.0000 C.3     1  UNL1        0.0695
     40 C           6.0279    0.5186    0.0000 C.3     1  UNL1       -0.0590
     41 C           5.9295   -1.5940    0.0000 C.3     1  UNL1       -0.0254
     42 C           6.9024    5.1227    0.0000 C.3     1  UNL1       -0.0406
     43 C           8.8046   -1.5863    0.0000 C.3     1  UNL1        0.0588
     44 C           8.3113   -2.4561    0.0000 C.3     1  UNL1       -0.0548
     45 C           8.6344    5.1361    0.0000 C.3     1  UNL1        0.0560
     46 C           6.8947    6.1227    0.0000 C.3     1  UNL1       -0.0256
     47 C           7.7568    6.6294    0.0000 C.3     1  UNL1        0.0634
     48 C           6.0010   -3.6401    0.0000 C.3     1  UNL1        0.1886
     49 C           7.7491    7.6293    0.0000 C.3     1  UNL1        0.0056
     50 C          10.3112   -2.4407    0.0000 C.3     1  UNL1        0.1879
     51 C           6.0010   -4.6401    0.0000 C.3     1  UNL1        0.1406
     52 C           8.6113    8.1360    0.0000 C.3     1  UNL1        0.0491
     53 C           6.8793    8.1226    0.0000 C.3     1  UNL1       -0.0580
     54 C          10.8045   -1.5708    0.0000 C.3     1  UNL1        0.1341
     55 C           5.1350   -5.1401    0.0000 C.3     1  UNL1        0.1144
     56 C           4.2690   -3.6401    0.0000 C.3     1  UNL1        0.1130
     57 C           4.2690   -4.6401    0.0000 C.3     1  UNL1        0.1119
     58 C          11.8045   -1.5632    0.0000 C.3     1  UNL1        0.1141
     59 C          11.8178   -3.2952    0.0000 C.3     1  UNL1        0.1130
     60 C          12.3111   -2.4253    0.0000 C.3     1  UNL1        0.1119
     61 C           3.4030   -3.1401    0.0000 C.3     1  UNL1        0.0730
     62 C           6.8671   -6.1401    0.0000 C.3     1  UNL1        0.1885
     63 C          12.3245   -4.1573    0.0000 C.3     1  UNL1        0.0730
     64 C           7.7331   -6.6401    0.0000 C.3     1  UNL1        0.1341
     65 C           7.7331   -7.6401    0.0000 C.3     1  UNL1        0.1141
     66 C           6.0010   -7.6401    0.0000 C.3     1  UNL1        0.1130
     67 C           6.8671   -8.1401    0.0000 C.3     1  UNL1        0.1119
     68 C           5.1350   -8.1401    0.0000 C.3     1  UNL1        0.0730
     69 H           7.6385    0.6290    0.0000 H       1  UNL1        0.0312
     70 H           8.5314   -0.9284    0.0000 H       1  UNL1        0.0313
     71 H           6.1553    3.4732    0.0000 H       1  UNL1        0.0331
     72 H           9.2921    0.9578    0.0000 H       1  UNL1        0.0271
     73 H           8.8824    1.6429    0.0000 H       1  UNL1        0.0271
     74 H           5.4251    1.6588    0.0000 H       1  UNL1        0.0268
     75 H           5.8263    0.9700    0.0000 H       1  UNL1        0.0268
     76 H           8.9079   -0.5660    0.0000 H       1  UNL1        0.0268
     77 H           9.3017    0.1284    0.0000 H       1  UNL1        0.0268
     78 H           5.8179    3.1352    0.0000 H       1  UNL1        0.0269
     79 H           5.4221    2.4434    0.0000 H       1  UNL1        0.0269
     80 H           8.8791    2.4860    0.0000 H       1  UNL1        0.0271
     81 H           9.2836    3.1742    0.0000 H       1  UNL1        0.0271
     82 H           6.3448    3.7790    0.0000 H       1  UNL1        0.0602
     83 H           5.7398    0.0770    0.0000 H       1  UNL1        0.0271
     84 H           5.3300   -0.6081    0.0000 H       1  UNL1        0.0271
     85 H           8.8623    1.1274    0.0000 H       1  UNL1        0.0235
     86 H           9.3624    1.8476    0.0000 H       1  UNL1        0.0235
     87 H           8.6422    2.3477    0.0000 H       1  UNL1        0.0235
     88 H           9.2868    4.0036    0.0000 H       1  UNL1        0.0272
     89 H           8.8876    4.6950    0.0000 H       1  UNL1        0.0272
     90 H           8.6444    1.7793    0.0000 H       1  UNL1        0.0235
     91 H           9.3607    2.2850    0.0000 H       1  UNL1        0.0235
     92 H           8.8550    3.0013    0.0000 H       1  UNL1        0.0235
     93 H           7.4046   -2.4491    0.0000 H       1  UNL1        0.0603
     94 H           6.3400    1.0543    0.0000 H       1  UNL1        0.0235
     95 H           5.4922    0.8306    0.0000 H       1  UNL1        0.0235
     96 H           5.7158   -0.0172    0.0000 H       1  UNL1        0.0235
     97 H           5.3199   -1.4808    0.0000 H       1  UNL1        0.0290
     98 H           5.7137   -2.1752    0.0000 H       1  UNL1        0.0290
     99 H           6.2910    5.2257    0.0000 H       1  UNL1        0.0273
    100 H           6.6948    4.5385    0.0000 H       1  UNL1        0.0273
    101 H           9.3855   -1.3697    0.0000 H       1  UNL1        0.0567
    102 H           8.6922   -0.9765    0.0000 H       1  UNL1        0.0567
    103 H           7.7767   -2.7703    0.0000 H       1  UNL1        0.0237
    104 H           8.6254   -2.9907    0.0000 H       1  UNL1        0.0237
    105 H           8.8458   -2.1420    0.0000 H       1  UNL1        0.0237
    106 H           8.8509    4.5551    0.0000 H       1  UNL1        0.0566
    107 H           9.2441    5.2484    0.0000 H       1  UNL1        0.0566
    108 H           5.4705    4.2666    0.0000 H       1  UNL1        0.2098
    109 H           6.6781    6.7037    0.0000 H       1  UNL1        0.0290
    110 H           6.2850    6.0103    0.0000 H       1  UNL1        0.0290
    111 H           8.4896    7.0600    0.0000 H       1  UNL1        0.0599
    112 H           6.0010   -3.0201    0.0000 H       1  UNL1        0.0938
    113 H           7.2146    7.3152    0.0000 H       1  UNL1        0.0345
    114 H           9.9971   -1.9062    0.0000 H       1  UNL1        0.0937
    115 H           6.0010   -5.2601    0.0000 H       1  UNL1        0.0675
    116 H           8.8278    7.5550    0.0000 H       1  UNL1        0.0560
    117 H           9.2210    8.2484    0.0000 H       1  UNL1        0.0560
    118 H           7.1851    8.6619    0.0000 H       1  UNL1        0.0234
    119 H           6.3400    8.4285    0.0000 H       1  UNL1        0.0234
    120 H           6.5734    7.5833    0.0000 H       1  UNL1        0.0234
    121 H          11.1104   -1.0316    0.0000 H       1  UNL1        0.0671
    122 H           4.5981   -5.4501    0.0000 H       1  UNL1        0.0648
    123 H           4.2690   -3.0201    0.0000 H       1  UNL1        0.0647
    124 H           3.7320   -4.3301    0.0000 H       1  UNL1        0.0647
    125 H          12.4245   -1.5584    0.0000 H       1  UNL1        0.0648
    126 H          11.5120   -3.8344    0.0000 H       1  UNL1        0.0647
    127 H          12.6253   -2.9598    0.0000 H       1  UNL1        0.0647
    128 H           3.8015   -2.6652    0.0000 H       1  UNL1        0.0584
    129 H           3.0044   -2.6652    0.0000 H       1  UNL1        0.0584
    130 H           9.1381    9.4501    0.0000 H       1  UNL1        0.2094
    131 H           7.4040   -5.8301    0.0000 H       1  UNL1        0.0938
    132 H          10.6037   -0.1694    0.0000 H       1  UNL1        0.2101
    133 H           4.5981   -6.4501    0.0000 H       1  UNL1        0.2100
    134 H           3.4030   -5.7601    0.0000 H       1  UNL1        0.2100
    135 H          11.7435   -4.3738    0.0000 H       1  UNL1        0.0584
    136 H          12.4369   -4.7670    0.0000 H       1  UNL1        0.0584
    137 H          12.9178   -0.6885    0.0000 H       1  UNL1        0.2100
    138 H           8.2700   -6.9501    0.0000 H       1  UNL1        0.0671
    139 H          13.6170   -1.8783    0.0000 H       1  UNL1        0.2100
    140 H           2.0000   -3.3301    0.0000 H       1  UNL1        0.2095
    141 H           7.7331   -8.2601    0.0000 H       1  UNL1        0.0648
    142 H           5.4641   -7.3301    0.0000 H       1  UNL1        0.0647
    143 H           6.3301   -8.4501    0.0000 H       1  UNL1        0.0647
    144 H          13.6386   -4.6841    0.0000 H       1  UNL1        0.2095
    145 H           9.1360   -6.4501    0.0000 H       1  UNL1        0.2101
    146 H           4.7365   -8.6150    0.0000 H       1  UNL1        0.0584
    147 H           5.5335   -8.6150    0.0000 H       1  UNL1        0.0584
    148 H           8.5991   -8.7601    0.0000 H       1  UNL1        0.2100
    149 H           6.3301   -9.4501    0.0000 H       1  UNL1        0.2100
    150 H           3.7320   -7.9501    0.0000 H       1  UNL1        0.2095
@<TRIPOS>BOND
     1    33     1    1
     2     1   108    1
     3    39     2    1
     4    48     2    1
     5     3    45    1
     6     3    47    1
     7     4    43    1
     8    50     4    1
     9     5    48    1
    10     5    56    1
    11     6    50    1
    12     6    59    1
    13    51     7    1
    14    62     7    1
    15     8    52    1
    16     8   130    1
    17    54     9    1
    18     9   132    1
    19    55    10    1
    20    10   133    1
    21    57    11    1
    22    11   134    1
    23    58    12    1
    24    12   137    1
    25    60    13    1
    26    13   139    1
    27    14    62    1
    28    14    66    1
    29    15    61    1
    30    15   140    1
    31    16    63    1
    32    16   144    1
    33    64    17    1
    34    17   145    1
    35    65    18    1
    36    18   148    1
    37    67    19    1
    38    19   149    1
    39    20    68    1
    40    20   150    1
    41    21    22    1
    42    21    23    1
    43    21    27    1
    44    21    36    1
    45    22    24    1
    46    22    28    1
    47    22    69    1
    48    23    26    1
    49    23    32    1
    50    23    38    1
    51    24    25    1
    52    24    34    1
    53    24    40    1
    54    25    29    1
    55    25    30    1
    56    25    70    1
    57    26    31    1
    58    26    33    1
    59    26    71    1
    60    27    29    1
    61    27    72    1
    62    27    73    1
    63    28    31    1
    64    28    74    1
    65    28    75    1
    66    29    76    1
    67    29    77    1
    68    30    39    1
    69    30    43    1
    70    30    44    1
    71    31    78    1
    72    31    79    1
    73    32    37    1
    74    32    80    1
    75    32    81    1
    76    33    35    1
    77    33    82    1
    78    34    41    1
    79    34    83    1
    80    34    84    1
    81    35    37    1
    82    35    42    1
    83    35    45    1
    84    36    85    1
    85    36    86    1
    86    36    87    1
    87    37    88    1
    88    37    89    1
    89    38    90    1
    90    38    91    1
    91    38    92    1
    92    39    41    1
    93    39    93    1
    94    40    94    1
    95    40    95    1
    96    40    96    1
    97    41    97    1
    98    41    98    1
    99    42    46    1
   100    42    99    1
   101    42   100    1
   102    43   101    1
   103    43   102    1
   104    44   103    1
   105    44   104    1
   106    44   105    1
   107    45   106    1
   108    45   107    1
   109    46    47    1
   110    46   109    1
   111    46   110    1
   112    47    49    1
   113    47   111    1
   114    48    51    1
   115    48   112    1
   116    49    52    1
   117    49    53    1
   118    49   113    1
   119    50    54    1
   120    50   114    1
   121    51    55    1
   122    51   115    1
   123    52   116    1
   124    52   117    1
   125    53   118    1
   126    53   119    1
   127    53   120    1
   128    54    58    1
   129    54   121    1
   130    55    57    1
   131    55   122    1
   132    56    57    1
   133    56    61    1
   134    56   123    1
   135    57   124    1
   136    58    60    1
   137    58   125    1
   138    59    60    1
   139    59    63    1
   140    59   126    1
   141    60   127    1
   142    61   128    1
   143    61   129    1
   144    62    64    1
   145    62   131    1
   146    63   135    1
   147    63   136    1
   148    64    65    1
   149    64   138    1
   150    65    67    1
   151    65   141    1
   152    66    67    1
   153    66    68    1
   154    66   142    1
   155    67   143    1
   156    68   146    1
   157    68   147    1
