@<TRIPOS>MOLECULE
IMPHY012507
 45 47 0 0 0
SMALL
GASTEIGER

@<TRIPOS>ATOM
      1 O           6.1061   -0.0627    0.0000 O.3     1  UNL1       -0.4578
      2 O           6.6985   -1.6903    0.0000 O.2     1  UNL1       -0.2449
      3 O           2.5209   -0.4460    0.0000 O.3     1  UNL1       -0.4914
      4 O           2.1736   -2.4156    0.0000 O.3     1  UNL1       -0.4915
      5 N           8.6180    2.5344    0.0000 N.3     1  UNL1       -0.2992
      6 C           9.3546    1.5517    0.0000 C.3     1  UNL1        0.0138
      7 C           9.0958    0.5858    0.0000 C.3     1  UNL1        0.0138
      8 C          10.7536    1.0429    0.0000 C.3     1  UNL1       -0.0358
      9 C          10.4948    0.0770    0.0000 C.3     1  UNL1       -0.0358
     10 C           7.3214    1.2406    0.0000 C.3     1  UNL1        0.0000
     11 C           7.8748   -0.2799    0.0000 C.3     1  UNL1        0.0000
     12 C           7.0458    0.2793    0.0000 C.3     1  UNL1        0.1063
     13 C           8.1180    3.4004    0.0000 C.3     1  UNL1       -0.0122
     14 C           5.9324   -1.0475    0.0000 C.2     1  UNL1        0.3396
     15 C           4.9927   -1.3895    0.0000 C.ar    1  UNL1        0.0627
     16 C           4.2267   -0.7467    0.0000 C.ar    1  UNL1       -0.0023
     17 C           4.8191   -2.3743    0.0000 C.ar    1  UNL1       -0.0441
     18 C           3.2870   -1.0887    0.0000 C.ar    1  UNL1        0.1623
     19 C           3.8794   -2.7163    0.0000 C.ar    1  UNL1       -0.0155
     20 C           3.1133   -2.0736    0.0000 C.ar    1  UNL1        0.1615
     21 C           2.6946    0.5389    0.0000 C.3     1  UNL1        0.0790
     22 C           2.0000   -3.4004    0.0000 C.3     1  UNL1        0.0790
     23 H           9.7240    2.0497    0.0000 H       1  UNL1        0.0464
     24 H           9.1786   -0.0286    0.0000 H       1  UNL1        0.0464
     25 H          11.3475    0.8651    0.0000 H       1  UNL1        0.0281
     26 H          10.9485    1.6315    0.0000 H       1  UNL1        0.0281
     27 H          10.2998   -0.5116    0.0000 H       1  UNL1        0.0281
     28 H          11.0887   -0.1008    0.0000 H       1  UNL1        0.0281
     29 H           7.3164    1.8606    0.0000 H       1  UNL1        0.0316
     30 H           6.7071    1.3244    0.0000 H       1  UNL1        0.0316
     31 H           7.4690   -0.7486    0.0000 H       1  UNL1        0.0316
     32 H           8.2914   -0.7390    0.0000 H       1  UNL1        0.0316
     33 H           6.9702   -0.3360    0.0000 H       1  UNL1        0.0735
     34 H           8.6550    3.7104    0.0000 H       1  UNL1        0.0391
     35 H           7.8080    3.9373    0.0000 H       1  UNL1        0.0391
     36 H           7.5811    3.0904    0.0000 H       1  UNL1        0.0391
     37 H           4.3343   -0.1361    0.0000 H       1  UNL1        0.0663
     38 H           5.2940   -2.7728    0.0000 H       1  UNL1        0.0627
     39 H           3.7717   -3.3269    0.0000 H       1  UNL1        0.0655
     40 H           3.3052    0.4312    0.0000 H       1  UNL1        0.0660
     41 H           2.8022    1.1494    0.0000 H       1  UNL1        0.0660
     42 H           2.0840    0.6465    0.0000 H       1  UNL1        0.0660
     43 H           1.3894   -3.2927    0.0000 H       1  UNL1        0.0660
     44 H           1.8923   -4.0110    0.0000 H       1  UNL1        0.0660
     45 H           2.6106   -3.5080    0.0000 H       1  UNL1        0.0660
@<TRIPOS>BOND
     1     1    12    1
     2     1    14    1
     3     2    14    2
     4     3    18    1
     5     3    21    1
     6     4    20    1
     7     4    22    1
     8     5     6    1
     9     5     7    1
    10     5    13    1
    11     6     8    1
    12     6    10    1
    13     6    23    1
    14     7     9    1
    15     7    11    1
    16     7    24    1
    17     8     9    1
    18     8    25    1
    19     8    26    1
    20     9    27    1
    21     9    28    1
    22    10    12    1
    23    10    29    1
    24    10    30    1
    25    11    12    1
    26    11    31    1
    27    11    32    1
    28    12    33    1
    29    13    34    1
    30    13    35    1
    31    13    36    1
    32    14    15    1
    33    15    16   ar
    34    15    17   ar
    35    16    18   ar
    36    16    37    1
    37    17    19   ar
    38    17    38    1
    39    18    20   ar
    40    19    20   ar
    41    19    39    1
    42    21    40    1
    43    21    41    1
    44    21    42    1
    45    22    43    1
    46    22    44    1
    47    22    45    1
