@<TRIPOS>MOLECULE
IMPHY007320
 33 35 0 0 0
SMALL
GASTEIGER

@<TRIPOS>ATOM
      1 O           5.4920   -0.9226    0.0000 O.2     1  UNL1       -0.4544
      2 O           3.7320    2.1121    0.0000 O.3     1  UNL1       -0.5055
      3 O           2.0000   -0.8879    0.0000 O.3     1  UNL1       -0.5063
      4 O           5.4804    2.1467    0.0000 O.2     1  UNL1       -0.2869
      5 O           9.8544   -2.4221    0.0000 O.3     1  UNL1       -0.5068
      6 C           4.5981    0.6121    0.0000 C.ar    1  UNL1        0.1057
      7 C           4.5981   -0.3879    0.0000 C.ar    1  UNL1        0.1463
      8 C           3.7320    1.1121    0.0000 C.ar    1  UNL1        0.1376
      9 C           2.8660    0.6121    0.0000 C.ar    1  UNL1        0.0332
     10 C           6.3981   -0.4087    0.0000 C.ar    1  UNL1        0.1392
     11 C           5.4920    1.1467    0.0000 C.ar    1  UNL1        0.1966
     12 C           3.7320   -0.8879    0.0000 C.ar    1  UNL1        0.0234
     13 C           2.8660   -0.3879    0.0000 C.ar    1  UNL1        0.1267
     14 C           6.3981    0.6329    0.0000 C.ar    1  UNL1        0.0288
     15 C           7.2622   -0.9121    0.0000 C.ar    1  UNL1        0.0176
     16 C           2.0000    1.1121    0.0000 C.3     1  UNL1       -0.0327
     17 C           7.2583   -1.9121    0.0000 C.ar    1  UNL1       -0.0476
     18 C           8.1301   -0.4154    0.0000 C.ar    1  UNL1       -0.0476
     19 C           8.1224   -2.4154    0.0000 C.ar    1  UNL1       -0.0195
     20 C           8.9942   -0.9188    0.0000 C.ar    1  UNL1       -0.0195
     21 C           8.9904   -1.9187    0.0000 C.ar    1  UNL1        0.1169
     22 H           3.7320   -1.5079    0.0000 H       1  UNL1        0.0691
     23 H           6.9338    0.9450    0.0000 H       1  UNL1        0.0693
     24 H           2.3100    1.6490    0.0000 H       1  UNL1        0.0280
     25 H           1.4631    1.4221    0.0000 H       1  UNL1        0.0280
     26 H           1.6900    0.5751    0.0000 H       1  UNL1        0.0280
     27 H           6.7202   -2.2200    0.0000 H       1  UNL1        0.0626
     28 H           8.1325    0.2046    0.0000 H       1  UNL1        0.0626
     29 H           8.1200   -3.0354    0.0000 H       1  UNL1        0.0654
     30 H           9.5323   -0.6108    0.0000 H       1  UNL1        0.0654
     31 H           3.1951    2.4221    0.0000 H       1  UNL1        0.2922
     32 H           2.0000   -1.5079    0.0000 H       1  UNL1        0.2921
     33 H          10.3926   -2.1142    0.0000 H       1  UNL1        0.2921
@<TRIPOS>BOND
     1     1     7   ar
     2     1    10   ar
     3     2     8    1
     4     2    31    1
     5     3    13    1
     6     3    32    1
     7     4    11    2
     8     5    21    1
     9     5    33    1
    10     6     7   ar
    11     6     8   ar
    12     6    11   ar
    13     7    12   ar
    14     8     9   ar
    15     9    13   ar
    16     9    16    1
    17    10    14   ar
    18    10    15    1
    19    11    14   ar
    20    12    13   ar
    21    12    22    1
    22    14    23    1
    23    15    17   ar
    24    15    18   ar
    25    16    24    1
    26    16    25    1
    27    16    26    1
    28    17    19   ar
    29    17    27    1
    30    18    20   ar
    31    18    28    1
    32    19    21   ar
    33    19    29    1
    34    20    21   ar
    35    20    30    1
