@<TRIPOS>MOLECULE
IMPHY009517
 33 35 0 0 0
SMALL
GASTEIGER

@<TRIPOS>ATOM
      1 O           6.0682   -0.2704    0.0000 O.2     1  UNL1       -0.1997
      2 O           7.8003    1.7296    0.0000 O.3     1  UNL1       -0.4995
      3 O           4.3198    2.7642    0.0000 O.3     1  UNL1       -0.5057
      4 O           2.5381   -0.2945    0.0000 O.3     1  UNL1       -0.5063
      5 O          10.3984    0.2296    0.0000 O.3     1  UNL1       -0.5032
      6 O           8.6663   -2.7704    0.0000 O.3     1  UNL1       -0.5032
      7 O          10.3984   -1.7704    0.0000 O.3     1  UNL1       -0.5009
      8 C           5.2022    1.2296    0.0000 C.ar    1  UNL1        0.1241
      9 C           6.9343    0.2296    0.0000 C.ar    1  UNL1        0.4045
     10 C           5.2022    0.2296    0.0000 C.ar    1  UNL1        0.3708
     11 C           7.8003   -0.2704    0.0000 C.ar    1  UNL1        0.0899
     12 C           6.9343    1.2296    0.0000 C.ar    1  UNL1        0.2238
     13 C           6.0682    1.7296    0.0000 C.ar    1  UNL1        0.0090
     14 C           4.3083    1.7643    0.0000 C.ar    1  UNL1        0.1366
     15 C           4.3083   -0.3051    0.0000 C.ar    1  UNL1        0.0847
     16 C           7.8003   -1.2704    0.0000 C.ar    1  UNL1       -0.0000
     17 C           8.6663    0.2296    0.0000 C.ar    1  UNL1       -0.0000
     18 C           3.4022    0.2088    0.0000 C.ar    1  UNL1        0.1293
     19 C           3.4022    1.2504    0.0000 C.ar    1  UNL1        0.0225
     20 C           9.5323   -0.2704    0.0000 C.ar    1  UNL1        0.1628
     21 C           8.6663   -1.7704    0.0000 C.ar    1  UNL1        0.1628
     22 C           9.5323   -1.2704    0.0000 C.ar    1  UNL1        0.2006
     23 H           6.0682    2.3496    0.0000 H       1  UNL1        0.0667
     24 H           4.3154   -0.9250    0.0000 H       1  UNL1        0.0749
     25 H           7.2634   -1.5804    0.0000 H       1  UNL1        0.0664
     26 H           8.6663    0.8496    0.0000 H       1  UNL1        0.0664
     27 H           2.8665    1.5625    0.0000 H       1  UNL1        0.0691
     28 H           7.8003    2.3496    0.0000 H       1  UNL1        0.2925
     29 H           3.7865    3.0804    0.0000 H       1  UNL1        0.2922
     30 H           2.0000    0.0134    0.0000 H       1  UNL1        0.2921
     31 H          10.3984    0.8496    0.0000 H       1  UNL1        0.2923
     32 H           8.1294   -3.0804    0.0000 H       1  UNL1        0.2923
     33 H          10.3984   -2.3904    0.0000 H       1  UNL1        0.2924
@<TRIPOS>UNITY_ATOM_ATTR
1 1
charge 1
@<TRIPOS>BOND
     1     1     9   ar
     2     1    10   ar
     3     2    12    1
     4     2    28    1
     5     3    14    1
     6     3    29    1
     7     4    18    1
     8     4    30    1
     9     5    20    1
    10     5    31    1
    11     6    21    1
    12     6    32    1
    13     7    22    1
    14     7    33    1
    15     8    10   ar
    16     8    13   ar
    17     8    14   ar
    18     9    11    1
    19     9    12   ar
    20    10    15   ar
    21    11    16   ar
    22    11    17   ar
    23    12    13   ar
    24    13    23    1
    25    14    19   ar
    26    15    18   ar
    27    15    24    1
    28    16    21   ar
    29    16    25    1
    30    17    20   ar
    31    17    26    1
    32    18    19   ar
    33    19    27    1
    34    20    22   ar
    35    21    22   ar
