@<TRIPOS>MOLECULE
IMPHY008052
 100 105 0 0 0
SMALL
GASTEIGER

@<TRIPOS>ATOM
      1 O           8.0703   -2.0019    0.0000 O.3     1  UNL1       -0.4577
      2 O          16.9954    1.0846    0.0000 O.3     1  UNL1       -0.3944
      3 O           7.2101   -0.4985    0.0000 O.2     1  UNL1       -0.2456
      4 O           2.0101   -1.4785    0.0000 O.3     1  UNL1       -0.5033
      5 O           2.0024   -3.4785    0.0000 O.3     1  UNL1       -0.5033
      6 C          12.5974   -0.4495    0.0000 C.3     1  UNL1       -0.0194
      7 C          11.7313    0.0505    0.0000 C.3     1  UNL1       -0.0257
      8 C          10.8213   -0.4564    0.0000 C.3     1  UNL1       -0.0249
      9 C          13.4634    0.0505    0.0000 C.3     1  UNL1       -0.0051
     10 C          10.8133   -1.4980    0.0000 C.3     1  UNL1       -0.0268
     11 C          12.6134   -1.4910    0.0000 C.3     1  UNL1       -0.0463
     12 C          13.4634    1.0505    0.0000 C.2     1  UNL1       -0.0633
     13 C          11.7154   -2.0188    0.0000 C.3     1  UNL1       -0.0486
     14 C          14.3573    1.5851    0.0000 C.3     1  UNL1       -0.0112
     15 C           9.8779   -2.0477    0.0000 C.3     1  UNL1        0.0055
     16 C          15.2634    1.0713    0.0000 C.3     1  UNL1        0.0004
     17 C          14.3573   -0.4842    0.0000 C.3     1  UNL1       -0.0428
     18 C          11.7313    1.0505    0.0000 C.3     1  UNL1       -0.0306
     19 C           9.8945    0.1077    0.0000 C.3     1  UNL1       -0.0437
     20 C          15.2634    0.0296    0.0000 C.3     1  UNL1       -0.0439
     21 C          13.2402   -1.2156    0.0000 C.3     1  UNL1       -0.0585
     22 C          12.5974    1.5505    0.0000 C.2     1  UNL1       -0.0836
     23 C           8.9382   -1.5052    0.0000 C.3     1  UNL1        0.1087
     24 C          10.8290    0.5436    0.0000 C.3     1  UNL1       -0.0590
     25 C           8.9466   -0.4203    0.0000 C.3     1  UNL1       -0.0146
     26 C          13.8055   -0.8892    0.0000 C.3     1  UNL1       -0.0553
     27 C          14.3322    2.6698    0.0000 C.3     1  UNL1       -0.0407
     28 C          16.2072    1.6065    0.0000 C.3     1  UNL1       -0.0443
     29 C          15.2634    3.2267    0.0000 C.3     1  UNL1       -0.0343
     30 C          16.2072    2.6915    0.0000 C.3     1  UNL1       -0.0473
     31 C           9.3812   -2.9157    0.0000 C.3     1  UNL1       -0.0562
     32 C          10.3812   -2.9118    0.0000 C.3     1  UNL1       -0.0562
     33 C          16.1333    0.5780    0.0000 C.3     1  UNL1        0.0504
     34 C          15.7534    4.0985    0.0000 C.3     1  UNL1       -0.0598
     35 C          14.7534    4.0869    0.0000 C.3     1  UNL1       -0.0598
     36 C           7.2062   -1.4985    0.0000 C.2     1  UNL1        0.3322
     37 C           6.3383   -1.9952    0.0000 C.2     1  UNL1        0.0231
     38 C           5.4742   -1.4919    0.0000 C.2     1  UNL1       -0.0477
     39 C           4.6062   -1.9885    0.0000 C.ar    1  UNL1       -0.0211
     40 C           3.7421   -1.4852    0.0000 C.ar    1  UNL1       -0.0094
     41 C           4.6024   -2.9885    0.0000 C.ar    1  UNL1       -0.0509
     42 C           2.8742   -1.9818    0.0000 C.ar    1  UNL1        0.1588
     43 C           3.7344   -3.4852    0.0000 C.ar    1  UNL1       -0.0160
     44 C           2.8703   -2.9818    0.0000 C.ar    1  UNL1        0.1582
     45 H          12.4675    0.4755    0.0000 H       1  UNL1        0.0315
     46 H          10.8166   -2.3480    0.0000 H       1  UNL1        0.0312
     47 H          12.8315   -2.0714    0.0000 H       1  UNL1        0.0271
     48 H          13.2226   -1.3756    0.0000 H       1  UNL1        0.0271
     49 H          11.3181   -2.4948    0.0000 H       1  UNL1        0.0268
     50 H          12.1163   -2.4917    0.0000 H       1  UNL1        0.0268
     51 H          15.0868    2.0214    0.0000 H       1  UNL1        0.0352
     52 H          13.9527   -0.9540    0.0000 H       1  UNL1        0.0274
     53 H          14.7510   -0.9632    0.0000 H       1  UNL1        0.0274
     54 H          11.5193    1.6331    0.0000 H       1  UNL1        0.0310
     55 H          11.1208    0.9428    0.0000 H       1  UNL1        0.0310
     56 H          10.3027    0.5743    0.0000 H       1  UNL1        0.0272
     57 H           9.5046    0.5897    0.0000 H       1  UNL1        0.0272
     58 H          15.4725   -0.5540    0.0000 H       1  UNL1        0.0272
     59 H          15.8743    0.1357    0.0000 H       1  UNL1        0.0272
     60 H          12.7652   -1.6141    0.0000 H       1  UNL1        0.0235
     61 H          13.6387   -1.6905    0.0000 H       1  UNL1        0.0235
     62 H          13.7151   -0.8171    0.0000 H       1  UNL1        0.0235
     63 H          12.5974    2.1705    0.0000 H       1  UNL1        0.0572
     64 H           8.9371   -2.1252    0.0000 H       1  UNL1        0.0739
     65 H          11.4490    0.5388    0.0000 H       1  UNL1        0.0235
     66 H          10.8338    1.1636    0.0000 H       1  UNL1        0.0235
     67 H          10.2091    0.5484    0.0000 H       1  UNL1        0.0235
     68 H           8.7421    0.1650    0.0000 H       1  UNL1        0.0301
     69 H           8.3350   -0.5216    0.0000 H       1  UNL1        0.0301
     70 H          13.2229   -1.1013    0.0000 H       1  UNL1        0.0238
     71 H          14.0176   -1.4718    0.0000 H       1  UNL1        0.0238
     72 H          14.3881   -0.6771    0.0000 H       1  UNL1        0.0238
     73 H          14.1097    3.2485    0.0000 H       1  UNL1        0.0276
     74 H          13.7240    2.5496    0.0000 H       1  UNL1        0.0276
     75 H          16.4162    1.0228    0.0000 H       1  UNL1        0.0272
     76 H          16.8180    1.7126    0.0000 H       1  UNL1        0.0272
     77 H          16.8180    2.5854    0.0000 H       1  UNL1        0.0271
     78 H          16.4162    3.2752    0.0000 H       1  UNL1        0.0271
     79 H           8.8431   -2.6077    0.0000 H       1  UNL1        0.0236
     80 H           9.0733   -3.4538    0.0000 H       1  UNL1        0.0236
     81 H           9.9194   -3.2236    0.0000 H       1  UNL1        0.0236
     82 H           9.8455   -3.2239    0.0000 H       1  UNL1        0.0236
     83 H          10.6933   -3.4475    0.0000 H       1  UNL1        0.0236
     84 H          10.9170   -2.5997    0.0000 H       1  UNL1        0.0236
     85 H          15.7384    0.1000    0.0000 H       1  UNL1        0.0563
     86 H          16.5354    0.1061    0.0000 H       1  UNL1        0.0563
     87 H          16.2938    3.7947    0.0000 H       1  UNL1        0.0235
     88 H          16.0571    4.6390    0.0000 H       1  UNL1        0.0235
     89 H          15.2129    4.4023    0.0000 H       1  UNL1        0.0235
     90 H          15.2867    4.4031    0.0000 H       1  UNL1        0.0235
     91 H          14.4372    4.6202    0.0000 H       1  UNL1        0.0235
     92 H          14.2201    3.7707    0.0000 H       1  UNL1        0.0235
     93 H          17.5347    0.7788    0.0000 H       1  UNL1        0.2094
     94 H           6.3359   -2.6152    0.0000 H       1  UNL1        0.0689
     95 H           5.4766   -0.8719    0.0000 H       1  UNL1        0.0626
     96 H           3.7445   -0.8652    0.0000 H       1  UNL1        0.0661
     97 H           5.1381   -3.3006    0.0000 H       1  UNL1        0.0625
     98 H           3.7320   -4.1052    0.0000 H       1  UNL1        0.0655
     99 H           2.0125   -0.8585    0.0000 H       1  UNL1        0.2923
    100 H           2.0000   -4.0985    0.0000 H       1  UNL1        0.2923
@<TRIPOS>BOND
     1    23     1    1
     2     1    36    1
     3     2    33    1
     4     2    93    1
     5     3    36    2
     6     4    42    1
     7     4    99    1
     8     5    44    1
     9     5   100    1
    10     6     7    1
    11     6     9    1
    12     6    11    1
    13     6    21    1
    14     7     8    1
    15     7    18    1
    16     7    45    1
    17     8    10    1
    18     8    19    1
    19     8    24    1
    20     9    12    1
    21     9    17    1
    22     9    26    1
    23    10    13    1
    24    10    15    1
    25    10    46    1
    26    11    13    1
    27    11    47    1
    28    11    48    1
    29    12    14    1
    30    12    22    2
    31    13    49    1
    32    13    50    1
    33    14    16    1
    34    14    27    1
    35    14    51    1
    36    15    23    1
    37    15    31    1
    38    15    32    1
    39    16    20    1
    40    16    28    1
    41    16    33    1
    42    17    20    1
    43    17    52    1
    44    17    53    1
    45    18    22    1
    46    18    54    1
    47    18    55    1
    48    19    25    1
    49    19    56    1
    50    19    57    1
    51    20    58    1
    52    20    59    1
    53    21    60    1
    54    21    61    1
    55    21    62    1
    56    22    63    1
    57    23    25    1
    58    23    64    1
    59    24    65    1
    60    24    66    1
    61    24    67    1
    62    25    68    1
    63    25    69    1
    64    26    70    1
    65    26    71    1
    66    26    72    1
    67    27    29    1
    68    27    73    1
    69    27    74    1
    70    28    30    1
    71    28    75    1
    72    28    76    1
    73    29    30    1
    74    29    34    1
    75    29    35    1
    76    30    77    1
    77    30    78    1
    78    31    79    1
    79    31    80    1
    80    31    81    1
    81    32    82    1
    82    32    83    1
    83    32    84    1
    84    33    85    1
    85    33    86    1
    86    34    87    1
    87    34    88    1
    88    34    89    1
    89    35    90    1
    90    35    91    1
    91    35    92    1
    92    36    37    1
    93    37    38    2
    94    37    94    1
    95    38    39    1
    96    38    95    1
    97    39    40   ar
    98    39    41   ar
    99    40    42   ar
   100    40    96    1
   101    41    43   ar
   102    41    97    1
   103    42    44   ar
   104    43    44   ar
   105    43    98    1
