@<TRIPOS>MOLECULE
IMPHY015319
 29 28 0 0 0
SMALL
GASTEIGER

@<TRIPOS>ATOM
      1 O           7.1962    0.5670    0.0000 O.3     1  UNL1       -0.4806
      2 O           6.3301   -0.9330    0.0000 O.2     1  UNL1       -0.2510
      3 C           2.8660    0.0670    0.0000 C.3     1  UNL1       -0.0374
      4 C           3.7320    0.5670    0.0000 C.3     1  UNL1       -0.0450
      5 C           4.5981    0.0670    0.0000 C.3     1  UNL1       -0.0334
      6 C           2.0000   -0.4330    0.0000 C.3     1  UNL1       -0.0601
      7 C           2.3660    0.9330    0.0000 C.3     1  UNL1       -0.0601
      8 C           3.3660   -0.7990    0.0000 C.3     1  UNL1       -0.0601
      9 C           5.4641    0.5670    0.0000 C.3     1  UNL1        0.0474
     10 C           4.5981   -0.9330    0.0000 C.3     1  UNL1       -0.0619
     11 C           6.3301    0.0670    0.0000 C.2     1  UNL1        0.3049
     12 H           4.1306    1.0419    0.0000 H       1  UNL1        0.0273
     13 H           3.3335    1.0419    0.0000 H       1  UNL1        0.0273
     14 H           5.1350   -0.2430    0.0000 H       1  UNL1        0.0303
     15 H           1.6900    0.1039    0.0000 H       1  UNL1        0.0235
     16 H           1.4631   -0.7430    0.0000 H       1  UNL1        0.0235
     17 H           2.3100   -0.9699    0.0000 H       1  UNL1        0.0235
     18 H           2.9030    1.2430    0.0000 H       1  UNL1        0.0235
     19 H           2.0560    1.4700    0.0000 H       1  UNL1        0.0235
     20 H           1.8291    0.6230    0.0000 H       1  UNL1        0.0235
     21 H           2.8291   -1.1090    0.0000 H       1  UNL1        0.0235
     22 H           3.6760   -1.3360    0.0000 H       1  UNL1        0.0235
     23 H           3.9030   -0.4890    0.0000 H       1  UNL1        0.0235
     24 H           5.8626    1.0419    0.0000 H       1  UNL1        0.0380
     25 H           5.0656    1.0419    0.0000 H       1  UNL1        0.0380
     26 H           3.9781   -0.9330    0.0000 H       1  UNL1        0.0233
     27 H           4.5981   -1.5530    0.0000 H       1  UNL1        0.0233
     28 H           5.2181   -0.9330    0.0000 H       1  UNL1        0.0233
     29 H           7.7331    0.2570    0.0000 H       1  UNL1        0.2951
@<TRIPOS>BOND
     1     1    11    1
     2     1    29    1
     3     2    11    2
     4     3     4    1
     5     3     6    1
     6     3     7    1
     7     3     8    1
     8     4     5    1
     9     4    12    1
    10     4    13    1
    11     5     9    1
    12     5    10    1
    13     5    14    1
    14     6    15    1
    15     6    16    1
    16     6    17    1
    17     7    18    1
    18     7    19    1
    19     7    20    1
    20     8    21    1
    21     8    22    1
    22     8    23    1
    23     9    11    1
    24     9    24    1
    25     9    25    1
    26    10    26    1
    27    10    27    1
    28    10    28    1
