@<TRIPOS>MOLECULE
IMPHY012125
 15 14 0 0 0
SMALL
GASTEIGER

@<TRIPOS>ATOM
      1 O           3.7320    0.7500    0.0000 O.3     1  UNL1       -0.4607
      2 O           2.8660   -0.7500    0.0000 O.2     1  UNL1       -0.2512
      3 C           4.5981    0.2500    0.0000 C.3     1  UNL1        0.1104
      4 C           2.8660    0.2500    0.0000 C.2     1  UNL1        0.3042
      5 C           5.4641    0.7500    0.0000 C.2     1  UNL1       -0.0541
      6 C           2.0000    0.7500    0.0000 C.3     1  UNL1        0.0332
      7 C           6.3301    0.2500    0.0000 C.2     1  UNL1       -0.0995
      8 H           4.1996   -0.2249    0.0000 H       1  UNL1        0.0742
      9 H           4.9966   -0.2249    0.0000 H       1  UNL1        0.0742
     10 H           5.4641    1.3700    0.0000 H       1  UNL1        0.0600
     11 H           2.3100    1.2869    0.0000 H       1  UNL1        0.0342
     12 H           1.4631    1.0600    0.0000 H       1  UNL1        0.0342
     13 H           1.6900    0.2131    0.0000 H       1  UNL1        0.0342
     14 H           6.3301   -0.3700    0.0000 H       1  UNL1        0.0533
     15 H           6.8671    0.5600    0.0000 H       1  UNL1        0.0533
@<TRIPOS>BOND
     1     1     3    1
     2     1     4    1
     3     2     4    2
     4     3     5    1
     5     3     8    1
     6     3     9    1
     7     4     6    1
     8     5     7    2
     9     5    10    1
    10     6    11    1
    11     6    12    1
    12     6    13    1
    13     7    14    1
    14     7    15    1
