@<TRIPOS>MOLECULE
IMPHY017174
 24 24 0 0 0
SMALL
GASTEIGER

@<TRIPOS>ATOM
      1 C           3.7320    0.2500    0.0000 C.ar    1  UNL1       -0.0418
      2 C           3.7320    1.2500    0.0000 C.3     1  UNL1       -0.0300
      3 C           4.5981   -0.2500    0.0000 C.ar    1  UNL1       -0.0470
      4 C           2.8660   -0.2500    0.0000 C.ar    1  UNL1       -0.0470
      5 C           4.5981   -1.2500    0.0000 C.ar    1  UNL1       -0.0586
      6 C           2.8660   -1.2500    0.0000 C.ar    1  UNL1       -0.0586
      7 C           4.5981    1.7500    0.0000 C.3     1  UNL1       -0.0612
      8 C           5.4641    0.2500    0.0000 C.3     1  UNL1       -0.0394
      9 C           2.0000    0.2500    0.0000 C.3     1  UNL1       -0.0394
     10 C           3.7320   -1.7500    0.0000 C.ar    1  UNL1       -0.0612
     11 H           3.5200    1.8326    0.0000 H       1  UNL1        0.0311
     12 H           3.1215    1.1423    0.0000 H       1  UNL1        0.0311
     13 H           5.1350   -1.5600    0.0000 H       1  UNL1        0.0620
     14 H           2.3291   -1.5600    0.0000 H       1  UNL1        0.0620
     15 H           4.9081    1.2131    0.0000 H       1  UNL1        0.0233
     16 H           5.1350    2.0600    0.0000 H       1  UNL1        0.0233
     17 H           4.2881    2.2869    0.0000 H       1  UNL1        0.0233
     18 H           5.7741   -0.2869    0.0000 H       1  UNL1        0.0278
     19 H           6.0010    0.5600    0.0000 H       1  UNL1        0.0278
     20 H           5.1541    0.7869    0.0000 H       1  UNL1        0.0278
     21 H           2.3100    0.7869    0.0000 H       1  UNL1        0.0278
     22 H           1.4631    0.5600    0.0000 H       1  UNL1        0.0278
     23 H           1.6900   -0.2869    0.0000 H       1  UNL1        0.0278
     24 H           3.7320   -2.3700    0.0000 H       1  UNL1        0.0618
@<TRIPOS>BOND
     1     1     2    1
     2     1     3   ar
     3     1     4   ar
     4     2     7    1
     5     2    11    1
     6     2    12    1
     7     3     5   ar
     8     3     8    1
     9     4     6   ar
    10     4     9    1
    11     5    10   ar
    12     5    13    1
    13     6    10   ar
    14     6    14    1
    15     7    15    1
    16     7    16    1
    17     7    17    1
    18     8    18    1
    19     8    19    1
    20     8    20    1
    21     9    21    1
    22     9    22    1
    23     9    23    1
    24    10    24    1
