@<TRIPOS>MOLECULE
IMPHY002757
 60 64 0 0 0
SMALL
GASTEIGER

@<TRIPOS>ATOM
      1 O           6.3981    3.6346    0.0000 O.3     1  UNL1       -0.4612
      2 O           5.5321   -0.8654    0.0000 O.3     1  UNL1       -0.4519
      3 O           6.3231   -2.1870    0.0000 O.3     1  UNL1       -0.5009
      4 O           8.1301    3.6346    0.0000 O.2     1  UNL1       -0.2508
      5 O           4.5059   -3.2256    0.0000 O.3     1  UNL1       -0.4913
      6 N           3.8000    2.1346    0.0000 N.3     1  UNL1       -0.2921
      7 C           3.8000    3.1346    0.0000 C.3     1  UNL1        0.0143
      8 C           4.6660    1.6346    0.0000 C.3     1  UNL1        0.0428
      9 C           4.6660    3.6346    0.0000 C.3     1  UNL1        0.0001
     10 C           2.9061    3.6693    0.0000 C.3     1  UNL1       -0.0372
     11 C           5.5321    3.1346    0.0000 C.3     1  UNL1        0.1062
     12 C           5.5321    2.1346    0.0000 C.3     1  UNL1        0.0043
     13 C           2.9061    1.6000    0.0000 C.3     1  UNL1       -0.0002
     14 C           2.0000    3.1554    0.0000 C.3     1  UNL1       -0.0505
     15 C           2.0000    2.1138    0.0000 C.3     1  UNL1       -0.0401
     16 C           4.6660    0.6346    0.0000 C.ar    1  UNL1        0.0160
     17 C           5.5321    0.1346    0.0000 C.ar    1  UNL1        0.1779
     18 C           3.2547    0.0575    0.0000 C.ar    1  UNL1       -0.0499
     19 C           7.2641    3.1346    0.0000 C.2     1  UNL1        0.3077
     20 C           5.7379   -1.3762    0.0000 C.ar    1  UNL1        0.2020
     21 C           3.1516   -1.4638    0.0000 C.ar    1  UNL1       -0.0158
     22 C           4.4720   -2.2262    0.0000 C.ar    1  UNL1        0.1650
     23 C           7.2641    2.1346    0.0000 C.3     1  UNL1        0.0489
     24 C           8.1301    1.6346    0.0000 C.3     1  UNL1       -0.0176
     25 C           6.3981   -1.3654    0.0000 C.ar    1  UNL1        0.1286
     26 C           8.1301    0.6346    0.0000 C.ar    1  UNL1       -0.0466
     27 C           6.5162   -0.3764    0.0000 C.ar    1  UNL1       -0.0191
     28 C           7.2641   -0.8654    0.0000 C.ar    1  UNL1       -0.0191
     29 C           7.1682    0.3765    0.0000 C.ar    1  UNL1       -0.0551
     30 C           7.2641    0.1346    0.0000 C.ar    1  UNL1       -0.0551
     31 C           3.6573   -3.7546    0.0000 C.3     1  UNL1        0.0790
     32 H           3.8000    3.9846    0.0000 H       1  UNL1        0.0464
     33 H           3.9299    1.2096    0.0000 H       1  UNL1        0.0515
     34 H           5.0646    4.1096    0.0000 H       1  UNL1        0.0316
     35 H           4.2675    4.1096    0.0000 H       1  UNL1        0.0316
     36 H           3.3107    4.1391    0.0000 H       1  UNL1        0.0280
     37 H           2.5124    4.1483    0.0000 H       1  UNL1        0.0280
     38 H           5.5321    3.9846    0.0000 H       1  UNL1        0.0735
     39 H           5.7441    1.5520    0.0000 H       1  UNL1        0.0319
     40 H           6.1426    2.2423    0.0000 H       1  UNL1        0.0319
     41 H           2.5124    1.1209    0.0000 H       1  UNL1        0.0427
     42 H           3.3107    1.1302    0.0000 H       1  UNL1        0.0427
     43 H           1.7909    3.7391    0.0000 H       1  UNL1        0.0266
     44 H           1.3891    3.0493    0.0000 H       1  UNL1        0.0266
     45 H           1.3891    2.2199    0.0000 H       1  UNL1        0.0278
     46 H           1.7909    1.5301    0.0000 H       1  UNL1        0.0278
     47 H           2.7520    0.4203    0.0000 H       1  UNL1        0.0623
     48 H           2.6044   -1.7554    0.0000 H       1  UNL1        0.0655
     49 H           6.6535    2.2423    0.0000 H       1  UNL1        0.0381
     50 H           7.0521    1.5520    0.0000 H       1  UNL1        0.0381
     51 H           8.7407    1.5270    0.0000 H       1  UNL1        0.0318
     52 H           8.3422    2.2172    0.0000 H       1  UNL1        0.0318
     53 H           6.0692   -2.7526    0.0000 H       1  UNL1        0.2924
     54 H           5.9491   -0.1257    0.0000 H       1  UNL1        0.0654
     55 H           7.8010   -1.1754    0.0000 H       1  UNL1        0.0654
     56 H           6.8390    0.9019    0.0000 H       1  UNL1        0.0621
     57 H           6.7272    0.4446    0.0000 H       1  UNL1        0.0621
     58 H           3.3293   -3.2285    0.0000 H       1  UNL1        0.0660
     59 H           3.1312   -4.0826    0.0000 H       1  UNL1        0.0660
     60 H           3.9853   -4.2808    0.0000 H       1  UNL1        0.0660
@<TRIPOS>BOND
     1     1    11    1
     2     1    19    1
     3     2    17    1
     4     2    25    1
     5     3    20    1
     6     3    53    1
     7     4    19    2
     8     5    22    1
     9     5    31    1
    10     6     7    1
    11     6     8    1
    12     6    13    1
    13     7     9    1
    14     7    10    1
    15     7    32    1
    16     8    12    1
    17     8    16    1
    18     8    33    1
    19     9    11    1
    20     9    34    1
    21     9    35    1
    22    10    14    1
    23    10    36    1
    24    10    37    1
    25    11    12    1
    26    11    38    1
    27    12    39    1
    28    12    40    1
    29    13    15    1
    30    13    41    1
    31    13    42    1
    32    14    15    1
    33    14    43    1
    34    14    44    1
    35    15    45    1
    36    15    46    1
    37    16    17   ar
    38    16    18   ar
    39    17    20   ar
    40    18    21   ar
    41    18    47    1
    42    19    23    1
    43    20    22   ar
    44    21    22   ar
    45    21    48    1
    46    23    24    1
    47    23    49    1
    48    23    50    1
    49    24    26    1
    50    24    51    1
    51    24    52    1
    52    25    27   ar
    53    25    28   ar
    54    26    29   ar
    55    26    30   ar
    56    27    29   ar
    57    27    54    1
    58    28    30   ar
    59    28    55    1
    60    29    56    1
    61    30    57    1
    62    31    58    1
    63    31    59    1
    64    31    60    1
