@<TRIPOS>MOLECULE
IMPHY009820
 34 37 0 0 0
SMALL
GASTEIGER

@<TRIPOS>ATOM
      1 O           7.1565    1.3878    0.0000 O.3     1  UNL1       -0.3327
      2 O           6.9662   -1.0957    0.0000 O.3     1  UNL1       -0.4504
      3 O           5.3104    1.9038    0.0000 O.2     1  UNL1       -0.4701
      4 O           8.5480   -1.9038    0.0000 O.2     1  UNL1       -0.2504
      5 O           2.5783    0.7592    0.0000 O.3     1  UNL1       -0.4773
      6 O           3.2028   -0.8564    0.0000 O.2     1  UNL1       -0.2454
      7 C           6.6565   -0.1510    0.0000 C.3     1  UNL1        0.1677
      8 C           5.8475    0.4367    0.0000 C.3     1  UNL1        0.0780
      9 C           7.4656    0.4367    0.0000 C.3     1  UNL1        0.1193
     10 C           5.0448   -0.1496    0.0000 C.3     1  UNL1        0.0246
     11 C           6.1565    1.3878    0.0000 C.3     1  UNL1        0.2090
     12 C           8.2683   -0.1496    0.0000 C.3     1  UNL1        0.0865
     13 C           6.3469   -1.0957    0.0000 C.2     1  UNL1       -0.0412
     14 C           5.3528   -1.0948    0.0000 C.2     1  UNL1       -0.0758
     15 C           7.9603   -1.0948    0.0000 C.2     1  UNL1        0.3138
     16 C           4.2896    0.4922    0.0000 C.2     1  UNL1        0.0780
     17 C           9.2198    0.1577    0.0000 C.3     1  UNL1       -0.0404
     18 C           4.4168    1.4752    0.0000 C.2     1  UNL1        0.0984
     19 C           9.9618   -0.5127    0.0000 C.3     1  UNL1       -0.0644
     20 C           3.3569    0.1317    0.0000 C.2     1  UNL1        0.3363
     21 H           5.5849   -0.3717    0.0000 H       1  UNL1        0.0414
     22 H           8.1539    0.9355    0.0000 H       1  UNL1        0.0649
     23 H           4.3388   -0.6230    0.0000 H       1  UNL1        0.0401
     24 H           6.3864    2.2061    0.0000 H       1  UNL1        0.1060
     25 H           8.3666    0.4625    0.0000 H       1  UNL1        0.0440
     26 H           6.7104   -1.5979    0.0000 H       1  UNL1        0.0609
     27 H           4.9884   -1.5964    0.0000 H       1  UNL1        0.0576
     28 H           9.7091    0.5386    0.0000 H       1  UNL1        0.0271
     29 H           8.9297    0.7057    0.0000 H       1  UNL1        0.0271
     30 H           3.9144    1.8384    0.0000 H       1  UNL1        0.1029
     31 H           9.5462   -0.9727    0.0000 H       1  UNL1        0.0230
     32 H          10.4219   -0.9284    0.0000 H       1  UNL1        0.0230
     33 H          10.3775   -0.0527    0.0000 H       1  UNL1        0.0230
     34 H           2.0000    0.5357    0.0000 H       1  UNL1        0.2954
@<TRIPOS>BOND
     1     1     9    1
     2     1    11    1
     3     7     2    1
     4     2    15    1
     5     3    11    1
     6     3    18    1
     7     4    15    2
     8     5    20    1
     9     5    34    1
    10     6    20    2
    11     7     8    1
    12     7     9    1
    13     7    13    1
    14     8    10    1
    15     8    11    1
    16     8    21    1
    17     9    12    1
    18     9    22    1
    19    10    14    1
    20    10    16    1
    21    10    23    1
    22    11    24    1
    23    12    15    1
    24    12    17    1
    25    12    25    1
    26    13    14    2
    27    13    26    1
    28    14    27    1
    29    16    18    2
    30    16    20    1
    31    17    19    1
    32    17    28    1
    33    17    29    1
    34    18    30    1
    35    19    31    1
    36    19    32    1
    37    19    33    1
