@<TRIPOS>MOLECULE
IMPHY007571
 33 33 0 0 0
SMALL
GASTEIGER

@<TRIPOS>ATOM
      1 O           6.0010    1.6550    0.0000 O.3     1  UNL1       -0.4616
      2 O           2.5369   -3.3450    0.0000 O.3     1  UNL1       -0.5033
      3 O           4.2690   -4.3450    0.0000 O.3     1  UNL1       -0.5033
      4 O           4.2690    1.6550    0.0000 O.2     1  UNL1       -0.2456
      5 C           6.8671    3.1550    0.0000 C.3     1  UNL1       -0.0188
      6 C           6.8671    4.1550    0.0000 C.3     1  UNL1       -0.0528
      7 C           6.0010    2.6550    0.0000 C.3     1  UNL1        0.0928
      8 C           7.7331    4.6550    0.0000 C.3     1  UNL1       -0.0652
      9 C           4.2690   -1.3450    0.0000 C.ar    1  UNL1       -0.0211
     10 C           3.4030   -1.8450    0.0000 C.ar    1  UNL1       -0.0094
     11 C           4.2690   -0.3450    0.0000 C.2     1  UNL1       -0.0477
     12 C           5.1350    1.1550    0.0000 C.2     1  UNL1        0.3319
     13 C           5.1350   -1.8450    0.0000 C.ar    1  UNL1       -0.0509
     14 C           3.4030   -2.8450    0.0000 C.ar    1  UNL1        0.1588
     15 C           5.1350    0.1550    0.0000 C.2     1  UNL1        0.0231
     16 C           4.2690   -3.3450    0.0000 C.ar    1  UNL1        0.1582
     17 C           5.1350   -2.8450    0.0000 C.ar    1  UNL1       -0.0160
     18 H           7.0791    2.5724    0.0000 H       1  UNL1        0.0298
     19 H           7.4776    3.2627    0.0000 H       1  UNL1        0.0298
     20 H           6.6550    4.7376    0.0000 H       1  UNL1        0.0264
     21 H           6.2565    4.0473    0.0000 H       1  UNL1        0.0264
     22 H           5.7890    3.2376    0.0000 H       1  UNL1        0.0697
     23 H           5.3905    2.5473    0.0000 H       1  UNL1        0.0697
     24 H           8.0431    4.1181    0.0000 H       1  UNL1        0.0230
     25 H           8.2700    4.9650    0.0000 H       1  UNL1        0.0230
     26 H           7.4231    5.1919    0.0000 H       1  UNL1        0.0230
     27 H           2.8660   -1.5350    0.0000 H       1  UNL1        0.0661
     28 H           3.7320   -0.0350    0.0000 H       1  UNL1        0.0626
     29 H           5.6720   -1.5350    0.0000 H       1  UNL1        0.0625
     30 H           5.6720   -0.1550    0.0000 H       1  UNL1        0.0689
     31 H           5.6720   -3.1550    0.0000 H       1  UNL1        0.0655
     32 H           2.0000   -3.0350    0.0000 H       1  UNL1        0.2923
     33 H           4.8059   -4.6550    0.0000 H       1  UNL1        0.2923
@<TRIPOS>BOND
     1     1     7    1
     2     1    12    1
     3     2    14    1
     4     2    32    1
     5     3    16    1
     6     3    33    1
     7     4    12    2
     8     5     6    1
     9     5     7    1
    10     5    18    1
    11     5    19    1
    12     6     8    1
    13     6    20    1
    14     6    21    1
    15     7    22    1
    16     7    23    1
    17     8    24    1
    18     8    25    1
    19     8    26    1
    20     9    10   ar
    21     9    11    1
    22     9    13   ar
    23    10    14   ar
    24    10    27    1
    25    11    15    2
    26    11    28    1
    27    12    15    1
    28    13    17   ar
    29    13    29    1
    30    14    16   ar
    31    15    30    1
    32    16    17   ar
    33    17    31    1
