@<TRIPOS>MOLECULE
IMPHY003977
 39 41 0 0 0
SMALL
GASTEIGER

@<TRIPOS>ATOM
      1 C           5.3212   -1.1530    0.0000 C.3     1  UNL1       -0.0250
      2 C           4.6141   -0.4459    0.0000 C.3     1  UNL1       -0.0255
      3 C           6.0283   -0.4459    0.0000 C.3     1  UNL1       -0.0283
      4 C           5.3212    0.2612    0.0000 C.3     1  UNL1       -0.0132
      5 C           3.7295   -0.8995    0.0000 C.3     1  UNL1       -0.0348
      6 C           4.8676   -2.0376    0.0000 C.3     1  UNL1       -0.0468
      7 C           3.8859   -1.8812    0.0000 C.3     1  UNL1       -0.0492
      8 C           6.9128    0.0077    0.0000 C.3     1  UNL1       -0.0455
      9 C           5.7748    1.1458    0.0000 C.2     1  UNL1       -0.0729
     10 C           6.0283   -1.8601    0.0000 C.3     1  UNL1       -0.0590
     11 C           6.7565    0.9894    0.0000 C.3     1  UNL1       -0.0314
     12 C           2.8377   -0.4470    0.0000 C.3     1  UNL1       -0.0436
     13 C           5.3223    2.0376    0.0000 C.2     1  UNL1       -0.0992
     14 C           2.0000   -0.9931    0.0000 C.3     1  UNL1       -0.0624
     15 C           2.7837    0.5515    0.0000 C.3     1  UNL1       -0.0624
     16 H           4.1136    0.2411    0.0000 H       1  UNL1        0.0315
     17 H           6.5288   -1.1329    0.0000 H       1  UNL1        0.0312
     18 H           4.6342    0.7617    0.0000 H       1  UNL1        0.0351
     19 H           3.2284   -1.2646    0.0000 H       1  UNL1        0.0306
     20 H           4.7062   -2.6362    0.0000 H       1  UNL1        0.0271
     21 H           5.4460   -2.2609    0.0000 H       1  UNL1        0.0271
     22 H           3.2667   -1.9138    0.0000 H       1  UNL1        0.0268
     23 H           3.8532   -2.5003    0.0000 H       1  UNL1        0.0268
     24 H           7.1362   -0.5707    0.0000 H       1  UNL1        0.0271
     25 H           7.5115    0.1690    0.0000 H       1  UNL1        0.0271
     26 H           5.5899   -2.2985    0.0000 H       1  UNL1        0.0235
     27 H           6.4667   -2.2985    0.0000 H       1  UNL1        0.0235
     28 H           6.4667   -1.4217    0.0000 H       1  UNL1        0.0235
     29 H           7.3756    1.0220    0.0000 H       1  UNL1        0.0310
     30 H           6.7891    1.6086    0.0000 H       1  UNL1        0.0310
     31 H           3.3571   -0.1085    0.0000 H       1  UNL1        0.0298
     32 H           5.6609    2.5570    0.0000 H       1  UNL1        0.0534
     33 H           4.7032    2.0711    0.0000 H       1  UNL1        0.0534
     34 H           1.6614   -0.4737    0.0000 H       1  UNL1        0.0232
     35 H           1.4806   -1.3317    0.0000 H       1  UNL1        0.0232
     36 H           2.3386   -1.5125    0.0000 H       1  UNL1        0.0232
     37 H           3.4028    0.5850    0.0000 H       1  UNL1        0.0232
     38 H           2.7501    1.1706    0.0000 H       1  UNL1        0.0232
     39 H           2.1646    0.5180    0.0000 H       1  UNL1        0.0232
@<TRIPOS>BOND
     1     1     2    1
     2     1     3    1
     3     1     6    1
     4     1    10    1
     5     2     4    1
     6     2     5    1
     7     2    16    1
     8     3     4    1
     9     3     8    1
    10     3    17    1
    11     4     9    1
    12     4    18    1
    13     5     7    1
    14     5    12    1
    15     5    19    1
    16     6     7    1
    17     6    20    1
    18     6    21    1
    19     7    22    1
    20     7    23    1
    21     8    11    1
    22     8    24    1
    23     8    25    1
    24     9    11    1
    25     9    13    2
    26    10    26    1
    27    10    27    1
    28    10    28    1
    29    11    29    1
    30    11    30    1
    31    12    14    1
    32    12    15    1
    33    12    31    1
    34    13    32    1
    35    13    33    1
    36    14    34    1
    37    14    35    1
    38    14    36    1
    39    15    37    1
    40    15    38    1
    41    15    39    1
