@<TRIPOS>MOLECULE
IMPHY004159
 78 84 0 0 0
SMALL
GASTEIGER

@<TRIPOS>ATOM
      1 O           7.6032    3.6679    0.0000 O.3     1  UNL1       -0.3877
      2 O           9.3586   -1.5142    0.0000 O.3     1  UNL1       -0.3369
      3 O          11.2253   -0.4364    0.0000 O.3     1  UNL1       -0.3407
      4 O           8.1926   -0.5658    0.0000 O.2     1  UNL1       -0.3004
      5 O           2.4774    3.3472    0.0000 O.3     1  UNL1       -0.4571
      6 O          12.2210   -2.0713    0.0000 O.3     1  UNL1       -0.3435
      7 O           9.4280   -2.5639    0.0000 O.3     1  UNL1       -0.3589
      8 O           9.4049   -3.6839    0.0000 O.3     1  UNL1       -0.3862
      9 O           2.0000    1.6303    0.0000 O.2     1  UNL1       -0.2456
     10 C           6.7334    3.1746    0.0000 C.3     1  UNL1        0.0751
     11 C           7.6273    2.6400    0.0000 C.3     1  UNL1       -0.0079
     12 C           7.6273    1.6400    0.0000 C.3     1  UNL1       -0.0231
     13 C           5.8273    2.6608    0.0000 C.3     1  UNL1        0.0036
     14 C           8.4934    1.1400    0.0000 C.3     1  UNL1        0.0344
     15 C           9.3594    1.6400    0.0000 C.3     1  UNL1       -0.0262
     16 C           6.7334    1.1053    0.0000 C.3     1  UNL1       -0.0484
     17 C           5.8273    1.6192    0.0000 C.3     1  UNL1       -0.0442
     18 C           5.0650    3.3615    0.0000 C.3     1  UNL1       -0.0081
     19 C           8.4934    3.1400    0.0000 C.3     1  UNL1       -0.0470
     20 C           6.5233    4.1886    0.0000 C.3     1  UNL1       -0.0226
     21 C           9.3594    2.6400    0.0000 C.3     1  UNL1       -0.0489
     22 C           5.4943    4.3038    0.0000 C.3     1  UNL1       -0.0432
     23 C           8.4773    0.0985    0.0000 C.3     1  UNL1       -0.0114
     24 C          10.2694    1.1331    0.0000 C.3     1  UNL1       -0.0203
     25 C           4.9575    2.1675    0.0000 C.3     1  UNL1       -0.0564
     26 C           9.3753   -0.4293    0.0000 C.3     1  UNL1        0.0893
     27 C          10.2774    0.0915    0.0000 C.3     1  UNL1        0.0884
     28 C           7.8506    0.3739    0.0000 C.2     1  UNL1        0.1270
     29 C           4.0850    3.1629    0.0000 C.2     1  UNL1       -0.0222
     30 C          10.2940   -2.0639    0.0000 C.3     1  UNL1        0.2469
     31 C          11.2337   -1.5214    0.0000 C.3     1  UNL1        0.2170
     32 C           3.3482    3.8390    0.0000 C.3     1  UNL1        0.1147
     33 C           3.6696    2.2532    0.0000 C.2     1  UNL1        0.0252
     34 C          10.2766   -3.1939    0.0000 C.3     1  UNL1        0.1162
     35 C           2.6761    2.3671    0.0000 C.2     1  UNL1        0.3323
     36 C          11.2510   -3.7665    0.0000 C.3     1  UNL1        0.0046
     37 C          12.2297   -3.2014    0.0000 C.3     1  UNL1        0.0616
     38 C          13.0977   -3.6981    0.0000 C.3     1  UNL1       -0.0385
     39 H           8.3635    2.2150    0.0000 H       1  UNL1        0.0332
     40 H           7.6339    0.7900    0.0000 H       1  UNL1        0.0314
     41 H          10.0922    2.0706    0.0000 H       1  UNL1        0.0311
     42 H           6.3398    0.6263    0.0000 H       1  UNL1        0.0268
     43 H           7.1380    0.6355    0.0000 H       1  UNL1        0.0268
     44 H           5.2165    1.7252    0.0000 H       1  UNL1        0.0272
     45 H           5.6183    1.0355    0.0000 H       1  UNL1        0.0272
     46 H           4.6792    3.8469    0.0000 H       1  UNL1        0.0353
     47 H           8.8919    3.6149    0.0000 H       1  UNL1        0.0269
     48 H           8.0948    3.6149    0.0000 H       1  UNL1        0.0269
     49 H           7.1403    4.2498    0.0000 H       1  UNL1        0.0293
     50 H           6.5272    4.8085    0.0000 H       1  UNL1        0.0293
     51 H           9.9700    2.5323    0.0000 H       1  UNL1        0.0268
     52 H           9.5714    3.2226    0.0000 H       1  UNL1        0.0268
     53 H           5.6277    4.9093    0.0000 H       1  UNL1        0.0272
     54 H           4.9062    4.5001    0.0000 H       1  UNL1        0.0272
     55 H           7.8682    0.2140    0.0000 H       1  UNL1        0.0300
     56 H           8.2593   -0.4819    0.0000 H       1  UNL1        0.0300
     57 H          10.8811    1.0317    0.0000 H       1  UNL1        0.0294
     58 H          10.4739    1.7184    0.0000 H       1  UNL1        0.0294
     59 H           4.6516    2.7068    0.0000 H       1  UNL1        0.0236
     60 H           4.4182    1.8616    0.0000 H       1  UNL1        0.0236
     61 H           5.2633    1.6282    0.0000 H       1  UNL1        0.0236
     62 H           8.6344   -0.8458    0.0000 H       1  UNL1        0.0623
     63 H          11.0086    0.5250    0.0000 H       1  UNL1        0.0623
     64 H           7.2400    0.4817    0.0000 H       1  UNL1        0.1032
     65 H           7.6080    4.2879    0.0000 H       1  UNL1        0.2102
     66 H          11.9648   -1.0879    0.0000 H       1  UNL1        0.0967
     67 H           3.8128    4.2495    0.0000 H       1  UNL1        0.0746
     68 H           2.9885    4.3440    0.0000 H       1  UNL1        0.0746
     69 H           3.9745    1.7134    0.0000 H       1  UNL1        0.0689
     70 H          10.2706   -3.8139    0.0000 H       1  UNL1        0.0650
     71 H          10.8500   -4.2394    0.0000 H       1  UNL1        0.0317
     72 H          11.6483   -4.2425    0.0000 H       1  UNL1        0.0317
     73 H          12.7649   -2.8884    0.0000 H       1  UNL1        0.0595
     74 H           8.8911   -2.2539    0.0000 H       1  UNL1        0.2130
     75 H           9.3977   -4.3038    0.0000 H       1  UNL1        0.2100
     76 H          12.7898   -4.2362    0.0000 H       1  UNL1        0.0255
     77 H          13.6358   -4.0060    0.0000 H       1  UNL1        0.0255
     78 H          13.4056   -3.1600    0.0000 H       1  UNL1        0.0255
@<TRIPOS>BOND
     1    10     1    1
     2     1    65    1
     3     2    26    1
     4     2    30    1
     5     3    27    1
     6     3    31    1
     7     4    28    2
     8     5    32    1
     9     5    35    1
    10     6    31    1
    11     6    37    1
    12    30     7    1
    13     7    74    1
    14    34     8    1
    15     8    75    1
    16     9    35    2
    17    10    11    1
    18    10    13    1
    19    10    20    1
    20    11    12    1
    21    11    19    1
    22    11    39    1
    23    12    14    1
    24    12    16    1
    25    12    40    1
    26    13    17    1
    27    13    18    1
    28    13    25    1
    29    14    15    1
    30    14    23    1
    31    14    28    1
    32    15    21    1
    33    15    24    1
    34    15    41    1
    35    16    17    1
    36    16    42    1
    37    16    43    1
    38    17    44    1
    39    17    45    1
    40    18    22    1
    41    18    29    1
    42    18    46    1
    43    19    21    1
    44    19    47    1
    45    19    48    1
    46    20    22    1
    47    20    49    1
    48    20    50    1
    49    21    51    1
    50    21    52    1
    51    22    53    1
    52    22    54    1
    53    23    26    1
    54    23    55    1
    55    23    56    1
    56    24    27    1
    57    24    57    1
    58    24    58    1
    59    25    59    1
    60    25    60    1
    61    25    61    1
    62    26    27    1
    63    26    62    1
    64    27    63    1
    65    28    64    1
    66    29    32    1
    67    29    33    2
    68    30    31    1
    69    30    34    1
    70    31    66    1
    71    32    67    1
    72    32    68    1
    73    33    35    1
    74    33    69    1
    75    34    36    1
    76    34    70    1
    77    36    37    1
    78    36    71    1
    79    36    72    1
    80    37    38    1
    81    37    73    1
    82    38    76    1
    83    38    77    1
    84    38    78    1
