@<TRIPOS>MOLECULE
IMPHY008335
 103 108 0 0 0
SMALL
GASTEIGER

@<TRIPOS>ATOM
      1 O           7.7289   -1.1560    0.0000 O.3     1  UNL1       -0.3474
      2 O           6.0589    2.9039    0.0000 O.3     1  UNL1       -0.4577
      3 O           6.8671   -2.6466    0.0000 O.3     1  UNL1       -0.3201
      4 O           6.9291    3.3838    0.0000 O.2     1  UNL1       -0.2882
      5 O           3.5776   -0.4751    0.0000 O.2     1  UNL1       -0.2964
      6 O           8.7151    4.3866    0.0000 O.2     1  UNL1       -0.4919
      7 O           2.4199    2.3583    0.0000 O.3     1  UNL1       -0.4639
      8 O           5.1350   -2.6466    0.0000 O.3     1  UNL1       -0.3404
      9 O           4.3277    2.9581    0.0000 O.2     1  UNL1       -0.2453
     10 O           6.8671   -4.6466    0.0000 O.3     1  UNL1       -0.3841
     11 O           3.4140    3.8373    0.0000 O.2     1  UNL1       -0.2508
     12 O           5.1350   -5.6466    0.0000 O.3     1  UNL1       -0.3864
     13 O           3.4030   -4.6466    0.0000 O.3     1  UNL1       -0.3865
     14 O           2.5369   -3.1466    0.0000 O.3     1  UNL1       -0.3924
     15 C           6.8912    0.3525    0.0000 C.3     1  UNL1        0.0052
     16 C           6.9109    1.3523    0.0000 C.3     1  UNL1        0.0170
     17 C           5.9869   -0.1645    0.0000 C.3     1  UNL1       -0.0161
     18 C           7.7866    1.8351    0.0000 C.3     1  UNL1        0.0440
     19 C           7.7472   -0.1645    0.0000 C.3     1  UNL1        0.0680
     20 C           5.0911    0.3671    0.0000 C.3     1  UNL1        0.0335
     21 C           8.6426    1.3182    0.0000 C.3     1  UNL1       -0.0196
     22 C           6.0277    1.9044    0.0000 C.3     1  UNL1        0.1086
     23 C           8.6229    0.3184    0.0000 C.3     1  UNL1       -0.0217
     24 C           5.1116    1.4085    0.0000 C.3     1  UNL1       -0.0030
     25 C           6.0052   -1.1560    0.0000 C.3     1  UNL1        0.0028
     26 C           6.0352    0.8694    0.0000 C.3     1  UNL1       -0.0565
     27 C           9.5624    1.8070    0.0000 C.3     1  UNL1       -0.0181
     28 C           6.8671   -1.6466    0.0000 C.3     1  UNL1        0.1629
     29 C           6.9306    2.3521    0.0000 C.3     1  UNL1       -0.0517
     30 C           7.7910    2.8767    0.0000 C.2     1  UNL1        0.2035
     31 C           4.5775   -0.4909    0.0000 C.3     1  UNL1       -0.0524
     32 C           4.0913    0.3829    0.0000 C.2     1  UNL1        0.1464
     33 C           9.5910    2.8482    0.0000 C.2     1  UNL1       -0.0356
     34 C           8.6993    3.3867    0.0000 C.2     1  UNL1        0.1592
     35 C           3.6050    1.2568    0.0000 C.3     1  UNL1        0.0622
     36 C          10.4124    1.2802    0.0000 C.3     1  UNL1       -0.0585
     37 C           4.0262    2.1638    0.0000 C.3     1  UNL1        0.0576
     38 C           2.6123    1.3770    0.0000 C.3     1  UNL1        0.1025
     39 C           5.2089    3.4308    0.0000 C.2     1  UNL1        0.3348
     40 C           6.0010   -3.1466    0.0000 C.3     1  UNL1        0.1908
     41 C           3.2937    2.8446    0.0000 C.2     1  UNL1        0.3079
     42 C           6.0010   -4.1466    0.0000 C.3     1  UNL1        0.1342
     43 C           5.2402    4.4303    0.0000 C.2     1  UNL1        0.0293
     44 C           9.5890    4.8728    0.0000 C.3     1  UNL1        0.0789
     45 C           5.1350   -4.6466    0.0000 C.3     1  UNL1        0.1141
     46 C           4.2690   -3.1466    0.0000 C.3     1  UNL1        0.1130
     47 C           4.2690   -4.1466    0.0000 C.3     1  UNL1        0.1119
     48 C           6.1214    4.9030    0.0000 C.3     1  UNL1       -0.0333
     49 C           4.3902    4.9571    0.0000 C.2     1  UNL1       -0.0774
     50 C           3.4030   -2.6466    0.0000 C.3     1  UNL1        0.0730
     51 C           4.4214    5.9566    0.0000 C.3     1  UNL1       -0.0461
     52 H           7.6385    0.9129    0.0000 H       1  UNL1        0.0352
     53 H           5.2522   -0.5919    0.0000 H       1  UNL1        0.0318
     54 H           8.4751   -0.6035    0.0000 H       1  UNL1        0.0603
     55 H           9.3668    0.8732    0.0000 H       1  UNL1        0.0317
     56 H           6.5746    2.1964    0.0000 H       1  UNL1        0.0737
     57 H           8.8235   -0.2683    0.0000 H       1  UNL1        0.0293
     58 H           9.2355    0.4140    0.0000 H       1  UNL1        0.0293
     59 H           4.9141    1.9962    0.0000 H       1  UNL1        0.0310
     60 H           4.4988    1.3145    0.0000 H       1  UNL1        0.0310
     61 H           5.3931   -1.0571    0.0000 H       1  UNL1        0.0317
     62 H           5.7991   -1.7408    0.0000 H       1  UNL1        0.0317
     63 H           6.3557    1.4001    0.0000 H       1  UNL1        0.0236
     64 H           5.5045    1.1899    0.0000 H       1  UNL1        0.0236
     65 H           5.7147    0.3387    0.0000 H       1  UNL1        0.0236
     66 H          10.1082    2.1011    0.0000 H       1  UNL1        0.0344
     67 H           6.3311   -1.9582    0.0000 H       1  UNL1        0.0911
     68 H           7.2511    2.8828    0.0000 H       1  UNL1        0.0239
     69 H           6.3999    2.6726    0.0000 H       1  UNL1        0.0239
     70 H           6.6101    1.8213    0.0000 H       1  UNL1        0.0239
     71 H           4.0455   -0.1724    0.0000 H       1  UNL1        0.0239
     72 H           4.2590   -1.0229    0.0000 H       1  UNL1        0.0239
     73 H           5.1094   -0.8094    0.0000 H       1  UNL1        0.0239
     74 H          10.1350    3.1455    0.0000 H       1  UNL1        0.0612
     75 H           4.2246    1.2794    0.0000 H       1  UNL1        0.0416
     76 H          10.0858    0.7532    0.0000 H       1  UNL1        0.0235
     77 H          10.9394    0.9535    0.0000 H       1  UNL1        0.0235
     78 H          10.7390    1.8072    0.0000 H       1  UNL1        0.0235
     79 H           4.5582    1.8453    0.0000 H       1  UNL1        0.0385
     80 H           4.3985    2.6595    0.0000 H       1  UNL1        0.0385
     81 H           1.9947    1.3220    0.0000 H       1  UNL1        0.0704
     82 H           2.6025    0.7571    0.0000 H       1  UNL1        0.0704
     83 H           6.0010   -2.5266    0.0000 H       1  UNL1        0.0938
     84 H           6.0010   -4.7666    0.0000 H       1  UNL1        0.0671
     85 H           9.8904    4.3310    0.0000 H       1  UNL1        0.0660
     86 H          10.1308    5.1743    0.0000 H       1  UNL1        0.0660
     87 H           9.2875    5.4146    0.0000 H       1  UNL1        0.0660
     88 H           4.5981   -4.9566    0.0000 H       1  UNL1        0.0648
     89 H           4.2690   -2.5266    0.0000 H       1  UNL1        0.0647
     90 H           3.7320   -3.8366    0.0000 H       1  UNL1        0.0647
     91 H           6.4145    4.3566    0.0000 H       1  UNL1        0.0280
     92 H           6.6678    5.1960    0.0000 H       1  UNL1        0.0280
     93 H           5.8283    5.4493    0.0000 H       1  UNL1        0.0280
     94 H           3.8438    4.6640    0.0000 H       1  UNL1        0.0574
     95 H           6.8671   -5.2666    0.0000 H       1  UNL1        0.2101
     96 H           3.8015   -2.1716    0.0000 H       1  UNL1        0.0584
     97 H           3.0044   -2.1716    0.0000 H       1  UNL1        0.0584
     98 H           4.5981   -5.9566    0.0000 H       1  UNL1        0.2100
     99 H           3.4030   -5.2666    0.0000 H       1  UNL1        0.2100
    100 H           5.0412    5.9372    0.0000 H       1  UNL1        0.0272
    101 H           4.4408    6.5763    0.0000 H       1  UNL1        0.0272
    102 H           3.8018    5.9760    0.0000 H       1  UNL1        0.0272
    103 H           2.0000   -2.8366    0.0000 H       1  UNL1        0.2095
@<TRIPOS>BOND
     1     1    19    1
     2     1    28    1
     3    22     2    1
     4     2    39    1
     5    28     3    1
     6    40     3    1
     7     4    30    2
     8     5    32    2
     9     6    34    1
    10     6    44    1
    11     7    38    1
    12     7    41    1
    13     8    40    1
    14     8    46    1
    15     9    39    2
    16    42    10    1
    17    10    95    1
    18    11    41    2
    19    45    12    1
    20    12    98    1
    21    47    13    1
    22    13    99    1
    23    14    50    1
    24    14   103    1
    25    15    16    1
    26    15    17    1
    27    15    19    1
    28    15    26    1
    29    16    18    1
    30    16    22    1
    31    16    52    1
    32    17    20    1
    33    17    25    1
    34    17    53    1
    35    18    21    1
    36    18    29    1
    37    18    30    1
    38    19    23    1
    39    19    54    1
    40    20    24    1
    41    20    31    1
    42    20    32    1
    43    21    23    1
    44    21    27    1
    45    21    55    1
    46    22    24    1
    47    22    56    1
    48    23    57    1
    49    23    58    1
    50    24    59    1
    51    24    60    1
    52    25    28    1
    53    25    61    1
    54    25    62    1
    55    26    63    1
    56    26    64    1
    57    26    65    1
    58    27    33    1
    59    27    36    1
    60    27    66    1
    61    28    67    1
    62    29    68    1
    63    29    69    1
    64    29    70    1
    65    30    34    1
    66    31    71    1
    67    31    72    1
    68    31    73    1
    69    35    32    1
    70    33    34    2
    71    33    74    1
    72    35    37    1
    73    35    38    1
    74    35    75    1
    75    36    76    1
    76    36    77    1
    77    36    78    1
    78    37    41    1
    79    37    79    1
    80    37    80    1
    81    38    81    1
    82    38    82    1
    83    39    43    1
    84    40    42    1
    85    40    83    1
    86    42    45    1
    87    42    84    1
    88    43    48    1
    89    43    49    2
    90    44    85    1
    91    44    86    1
    92    44    87    1
    93    45    47    1
    94    45    88    1
    95    46    47    1
    96    46    50    1
    97    46    89    1
    98    47    90    1
    99    48    91    1
   100    48    92    1
   101    48    93    1
   102    49    51    1
   103    49    94    1
   104    50    96    1
   105    50    97    1
   106    51   100    1
   107    51   101    1
   108    51   102    1
