@<TRIPOS>MOLECULE
IMPHY000083
 16 15 0 0 0
SMALL
GASTEIGER

@<TRIPOS>ATOM
      1 O           3.7320    0.7500    0.0000 O.3     1  UNL1       -0.4635
      2 O           2.8660   -0.7500    0.0000 O.2     1  UNL1       -0.2512
      3 N           6.3301    0.2500    0.0000 N.3     1  UNL1       -0.3270
      4 C           4.5981    0.2500    0.0000 C.3     1  UNL1        0.1047
      5 C           5.4641    0.7500    0.0000 C.3     1  UNL1        0.0277
      6 C           2.8660    0.2500    0.0000 C.2     1  UNL1        0.3040
      7 C           2.0000    0.7500    0.0000 C.3     1  UNL1        0.0332
      8 H           4.1996   -0.2249    0.0000 H       1  UNL1        0.0710
      9 H           4.9966   -0.2249    0.0000 H       1  UNL1        0.0710
     10 H           5.8626    1.2250    0.0000 H       1  UNL1        0.0455
     11 H           5.0656    1.2250    0.0000 H       1  UNL1        0.0455
     12 H           6.8671    0.5600    0.0000 H       1  UNL1        0.1183
     13 H           6.3301   -0.3700    0.0000 H       1  UNL1        0.1183
     14 H           2.3100    1.2869    0.0000 H       1  UNL1        0.0342
     15 H           1.4631    1.0600    0.0000 H       1  UNL1        0.0342
     16 H           1.6900    0.2131    0.0000 H       1  UNL1        0.0342
@<TRIPOS>BOND
     1     1     4    1
     2     1     6    1
     3     2     6    2
     4     3     5    1
     5     3    12    1
     6     3    13    1
     7     4     5    1
     8     4     8    1
     9     4     9    1
    10     5    10    1
    11     5    11    1
    12     6     7    1
    13     7    14    1
    14     7    15    1
    15     7    16    1
