@<TRIPOS>MOLECULE
IMPHY006240
 43 44 0 0 0
SMALL
GASTEIGER

@<TRIPOS>ATOM
      1 O           8.7788    2.3100    0.0000 O.2     1  UNL1       -0.4883
      2 O           2.0000   -1.3536    0.0000 O.2     1  UNL1       -0.4708
      3 O          10.5109    1.3100    0.0000 O.2     1  UNL1       -0.4883
      4 O           7.0468    1.3100    0.0000 O.2     1  UNL1       -0.2836
      5 O          10.5109   -0.6900    0.0000 O.2     1  UNL1       -0.2839
      6 C           7.0468   -0.6900    0.0000 C.3     1  UNL1       -0.0029
      7 C           7.0468   -1.6900    0.0000 C.2     1  UNL1       -0.0721
      8 C           5.3147   -1.6900    0.0000 C.3     1  UNL1       -0.0304
      9 C           7.9128   -0.1900    0.0000 C.2     1  UNL1        0.0108
     10 C           4.4487   -2.1900    0.0000 C.3     1  UNL1       -0.0213
     11 C           6.1808   -2.1900    0.0000 C.2     1  UNL1       -0.0844
     12 C           3.5827   -1.6900    0.0000 C.ar    1  UNL1       -0.0094
     13 C           7.9128   -2.1900    0.0000 C.3     1  UNL1       -0.0435
     14 C           7.9128    0.8100    0.0000 C.2     1  UNL1        0.2276
     15 C           8.7788   -0.6900    0.0000 C.2     1  UNL1       -0.0039
     16 C           8.7788    1.3100    0.0000 C.2     1  UNL1        0.2128
     17 C           9.6448    0.8100    0.0000 C.2     1  UNL1        0.2125
     18 C           9.6448   -0.1900    0.0000 C.2     1  UNL1        0.2244
     19 C           3.4782   -0.6955    0.0000 C.ar    1  UNL1       -0.0207
     20 C           2.6691   -2.0967    0.0000 C.ar    1  UNL1        0.0948
     21 C           2.5000   -0.4876    0.0000 C.ar    1  UNL1        0.0919
     22 C           9.6448    2.8100    0.0000 C.3     1  UNL1        0.0791
     23 C          11.3769    0.8100    0.0000 C.3     1  UNL1        0.0791
     24 H           6.8347   -0.1074    0.0000 H       1  UNL1        0.0359
     25 H           6.4362   -0.7977    0.0000 H       1  UNL1        0.0359
     26 H           5.7133   -1.2150    0.0000 H       1  UNL1        0.0311
     27 H           4.9162   -1.2150    0.0000 H       1  UNL1        0.0311
     28 H           4.0502   -2.6650    0.0000 H       1  UNL1        0.0317
     29 H           4.8472   -2.6650    0.0000 H       1  UNL1        0.0317
     30 H           6.1808   -2.8100    0.0000 H       1  UNL1        0.0572
     31 H           7.6028   -2.7269    0.0000 H       1  UNL1        0.0274
     32 H           8.4497   -2.5000    0.0000 H       1  UNL1        0.0274
     33 H           8.2228   -1.6531    0.0000 H       1  UNL1        0.0274
     34 H           8.7788   -1.3100    0.0000 H       1  UNL1        0.0661
     35 H           3.9389   -0.2806    0.0000 H       1  UNL1        0.0652
     36 H           2.5402   -2.7032    0.0000 H       1  UNL1        0.1032
     37 H           2.2478    0.0788    0.0000 H       1  UNL1        0.1029
     38 H           9.9548    2.2731    0.0000 H       1  UNL1        0.0660
     39 H          10.1818    3.1200    0.0000 H       1  UNL1        0.0660
     40 H           9.3348    3.3469    0.0000 H       1  UNL1        0.0660
     41 H          11.0669    0.2731    0.0000 H       1  UNL1        0.0660
     42 H          11.9138    0.5000    0.0000 H       1  UNL1        0.0660
     43 H          11.6869    1.3469    0.0000 H       1  UNL1        0.0660
@<TRIPOS>BOND
     1     1    16    1
     2     1    22    1
     3     2    20   ar
     4     2    21   ar
     5     3    17    1
     6     3    23    1
     7     4    14    2
     8     5    18    2
     9     6     7    1
    10     6     9    1
    11     6    24    1
    12     6    25    1
    13     7    11    2
    14     7    13    1
    15     8    10    1
    16     8    11    1
    17     8    26    1
    18     8    27    1
    19     9    14    1
    20     9    15    2
    21    10    12    1
    22    10    28    1
    23    10    29    1
    24    11    30    1
    25    12    19   ar
    26    12    20   ar
    27    13    31    1
    28    13    32    1
    29    13    33    1
    30    14    16    1
    31    15    18    1
    32    15    34    1
    33    16    17    2
    34    17    18    1
    35    19    21   ar
    36    19    35    1
    37    20    36    1
    38    21    37    1
    39    22    38    1
    40    22    39    1
    41    22    40    1
    42    23    41    1
    43    23    42    1
    44    23    43    1
