@<TRIPOS>MOLECULE
IMPHY015153
 13 13 0 0 0
SMALL
GASTEIGER

@<TRIPOS>ATOM
      1 N           2.8660   -0.6900    0.0000 N.pl3   1  UNL1       -0.3460
      2 C           2.0000   -0.1900    0.0000 C.3     1  UNL1        0.0272
      3 C           2.0000    0.8100    0.0000 C.2     1  UNL1       -0.0671
      4 C           3.7320   -0.1900    0.0000 C.2     1  UNL1       -0.0104
      5 C           2.8660    1.3100    0.0000 C.2     1  UNL1       -0.0631
      6 C           3.7320    0.8100    0.0000 C.2     1  UNL1       -0.0485
      7 H           1.3894   -0.0823    0.0000 H       1  UNL1        0.0505
      8 H           1.7880   -0.7726    0.0000 H       1  UNL1        0.0505
      9 H           2.8660   -1.3100    0.0000 H       1  UNL1        0.1458
     10 H           1.4631    1.1200    0.0000 H       1  UNL1        0.0588
     11 H           4.2690   -0.5000    0.0000 H       1  UNL1        0.0778
     12 H           2.8660    1.9300    0.0000 H       1  UNL1        0.0615
     13 H           4.2690    1.1200    0.0000 H       1  UNL1        0.0630
@<TRIPOS>BOND
     1     1     2    1
     2     1     4    1
     3     1     9    1
     4     2     3    1
     5     2     7    1
     6     2     8    1
     7     3     5    2
     8     3    10    1
     9     4     6    2
    10     4    11    1
    11     5     6    1
    12     5    12    1
    13     6    13    1
