@<TRIPOS>MOLECULE
IMPHY002958
 19 19 0 0 0
SMALL
GASTEIGER

@<TRIPOS>ATOM
      1 N           3.7320   -1.0000    0.0000 N.ar    1  UNL1       -0.2538
      2 N           3.7320    1.0000    0.0000 N.ar    1  UNL1       -0.2566
      3 C           2.8660   -0.5000    0.0000 C.ar    1  UNL1        0.0594
      4 C           2.8660    0.5000    0.0000 C.ar    1  UNL1        0.0592
      5 C           4.5981   -0.5000    0.0000 C.ar    1  UNL1        0.0566
      6 C           2.0000   -1.0000    0.0000 C.3     1  UNL1       -0.0206
      7 C           2.0000    1.0000    0.0000 C.3     1  UNL1       -0.0206
      8 C           4.5981    0.5000    0.0000 C.ar    1  UNL1        0.0489
      9 C           5.4641   -1.0000    0.0000 C.3     1  UNL1       -0.0209
     10 H           1.6900   -0.4631    0.0000 H       1  UNL1        0.0293
     11 H           1.4631   -1.3100    0.0000 H       1  UNL1        0.0293
     12 H           2.3100   -1.5369    0.0000 H       1  UNL1        0.0293
     13 H           2.3100    1.5369    0.0000 H       1  UNL1        0.0293
     14 H           1.4631    1.3100    0.0000 H       1  UNL1        0.0293
     15 H           1.6900    0.4631    0.0000 H       1  UNL1        0.0293
     16 H           5.1350    0.8100    0.0000 H       1  UNL1        0.0848
     17 H           5.1541   -1.5369    0.0000 H       1  UNL1        0.0293
     18 H           6.0010   -1.3100    0.0000 H       1  UNL1        0.0293
     19 H           5.7741   -0.4631    0.0000 H       1  UNL1        0.0293
@<TRIPOS>BOND
     1     1     3   ar
     2     1     5   ar
     3     2     4   ar
     4     2     8   ar
     5     3     4   ar
     6     3     6    1
     7     4     7    1
     8     5     8   ar
     9     5     9    1
    10     6    10    1
    11     6    11    1
    12     6    12    1
    13     7    13    1
    14     7    14    1
    15     7    15    1
    16     8    16    1
    17     9    17    1
    18     9    18    1
    19     9    19    1
