@<TRIPOS>MOLECULE
IMPHY000708
 53 55 0 0 0
SMALL
GASTEIGER

@<TRIPOS>ATOM
      1 O           2.8940    2.5662    0.0000 O.3     1  UNL1       -0.3875
      2 O           3.2601   -3.4726    0.0000 O.3     1  UNL1       -0.4610
      3 O           2.0000   -2.2125    0.0000 O.2     1  UNL1       -0.2453
      4 C           5.4921    1.0662    0.0000 C.3     1  UNL1       -0.0218
      5 C           5.4921    2.0662    0.0000 C.3     1  UNL1       -0.0273
      6 C           6.3861    2.6009    0.0000 C.3     1  UNL1       -0.0314
      7 C           4.6261    0.5662    0.0000 C.3     1  UNL1       -0.0086
      8 C           6.3861    0.5316    0.0000 C.3     1  UNL1       -0.0468
      9 C           4.6261    2.5662    0.0000 C.3     1  UNL1       -0.0192
     10 C           7.2921    2.0870    0.0000 C.3     1  UNL1       -0.0476
     11 C           7.2921    1.0454    0.0000 C.3     1  UNL1       -0.0520
     12 C           3.7601    2.0662    0.0000 C.3     1  UNL1        0.0766
     13 C           5.4921    0.0662    0.0000 C.3     1  UNL1       -0.0587
     14 C           3.7601    1.0662    0.0000 C.2     1  UNL1       -0.0446
     15 C           6.8760    3.4726    0.0000 C.3     1  UNL1       -0.0595
     16 C           5.8761    3.4611    0.0000 C.3     1  UNL1       -0.0595
     17 C           4.6261   -0.4338    0.0000 C.3     1  UNL1       -0.0269
     18 C           2.8940    0.5662    0.0000 C.2     1  UNL1       -0.0967
     19 C           3.7601   -0.9338    0.0000 C.2     1  UNL1       -0.0734
     20 C           3.7601   -1.9338    0.0000 C.2     1  UNL1        0.0359
     21 C           4.5691   -2.5216    0.0000 C.3     1  UNL1        0.0132
     22 C           2.9511   -2.5216    0.0000 C.2     1  UNL1        0.3350
     23 C           4.2601   -3.4726    0.0000 C.3     1  UNL1        0.0970
     24 H           5.4856    2.9162    0.0000 H       1  UNL1        0.0312
     25 H           4.0892    0.2562    0.0000 H       1  UNL1        0.0355
     26 H           5.9815    0.0618    0.0000 H       1  UNL1        0.0271
     27 H           6.7797    0.0525    0.0000 H       1  UNL1        0.0271
     28 H           5.0246    3.0412    0.0000 H       1  UNL1        0.0296
     29 H           4.2276    3.0412    0.0000 H       1  UNL1        0.0296
     30 H           7.9030    1.9809    0.0000 H       1  UNL1        0.0271
     31 H           7.5012    2.6707    0.0000 H       1  UNL1        0.0271
     32 H           7.5012    0.4617    0.0000 H       1  UNL1        0.0266
     33 H           7.9030    1.1515    0.0000 H       1  UNL1        0.0266
     34 H           3.2231    1.7562    0.0000 H       1  UNL1        0.0640
     35 H           4.8721    0.0662    0.0000 H       1  UNL1        0.0235
     36 H           5.4921   -0.5538    0.0000 H       1  UNL1        0.0235
     37 H           6.1121    0.0662    0.0000 H       1  UNL1        0.0235
     38 H           7.4165    3.1689    0.0000 H       1  UNL1        0.0235
     39 H           7.1798    4.0131    0.0000 H       1  UNL1        0.0235
     40 H           6.3355    3.7764    0.0000 H       1  UNL1        0.0235
     41 H           6.4094    3.7772    0.0000 H       1  UNL1        0.0235
     42 H           5.5599    3.9944    0.0000 H       1  UNL1        0.0235
     43 H           5.3428    3.1449    0.0000 H       1  UNL1        0.0235
     44 H           4.8382   -1.0164    0.0000 H       1  UNL1        0.0313
     45 H           5.2367   -0.3261    0.0000 H       1  UNL1        0.0313
     46 H           2.3571    0.8762    0.0000 H       1  UNL1        0.0535
     47 H           2.8940   -0.0538    0.0000 H       1  UNL1        0.0535
     48 H           3.2231   -0.6238    0.0000 H       1  UNL1        0.0577
     49 H           2.8940    3.1862    0.0000 H       1  UNL1        0.2102
     50 H           5.1355   -2.7738    0.0000 H       1  UNL1        0.0348
     51 H           4.8791   -1.9846    0.0000 H       1  UNL1        0.0348
     52 H           4.1953   -4.0892    0.0000 H       1  UNL1        0.0701
     53 H           4.8665   -3.6015    0.0000 H       1  UNL1        0.0701
@<TRIPOS>BOND
     1    12     1    1
     2     1    49    1
     3     2    22    1
     4     2    23    1
     5     3    22    2
     6     4     5    1
     7     4     7    1
     8     4     8    1
     9     4    13    1
    10     5     6    1
    11     5     9    1
    12     5    24    1
    13     6    10    1
    14     6    15    1
    15     6    16    1
    16     7    14    1
    17     7    17    1
    18     7    25    1
    19     8    11    1
    20     8    26    1
    21     8    27    1
    22     9    12    1
    23     9    28    1
    24     9    29    1
    25    10    11    1
    26    10    30    1
    27    10    31    1
    28    11    32    1
    29    11    33    1
    30    12    14    1
    31    12    34    1
    32    13    35    1
    33    13    36    1
    34    13    37    1
    35    14    18    2
    36    15    38    1
    37    15    39    1
    38    15    40    1
    39    16    41    1
    40    16    42    1
    41    16    43    1
    42    17    19    1
    43    17    44    1
    44    17    45    1
    45    18    46    1
    46    18    47    1
    47    19    20    2
    48    19    48    1
    49    20    21    1
    50    20    22    1
    51    21    23    1
    52    21    50    1
    53    21    51    1
    54    23    52    1
    55    23    53    1
