@<TRIPOS>MOLECULE
IMPHY017838
 42 43 0 0 0
SMALL
GASTEIGER

@<TRIPOS>ATOM
      1 O           9.9490   -1.8359    0.0000 O.3     1  UNL1       -0.4647
      2 O           8.4490   -2.7019    0.0000 O.2     1  UNL1       -0.2453
      3 C           5.4490    0.7622    0.0000 C.3     1  UNL1       -0.0222
      4 C           4.3089    1.7193    0.0000 C.3     1  UNL1       -0.0311
      5 C           4.0501    0.7534    0.0000 C.3     1  UNL1       -0.0142
      6 C           3.5723    2.7019    0.0000 C.3     1  UNL1       -0.0424
      7 C           2.2756    1.4082    0.0000 C.3     1  UNL1       -0.0311
      8 C           5.9490   -0.1038    0.0000 C.3     1  UNL1       -0.0434
      9 C           2.8290   -0.1123    0.0000 C.2     1  UNL1       -0.0729
     10 C           6.3150    1.2622    0.0000 C.3     1  UNL1       -0.0587
     11 C           2.0000    0.4469    0.0000 C.2     1  UNL1       -0.0845
     12 C           6.9490   -0.1038    0.0000 C.3     1  UNL1       -0.0335
     13 C           2.8639   -1.1117    0.0000 C.3     1  UNL1       -0.0435
     14 C           7.4490   -0.9699    0.0000 C.2     1  UNL1       -0.0743
     15 C           8.4490   -0.9699    0.0000 C.2     1  UNL1        0.0296
     16 C           8.9490   -0.1038    0.0000 C.3     1  UNL1       -0.0332
     17 C           8.9490   -1.8359    0.0000 C.2     1  UNL1        0.3343
     18 C          10.4490   -2.7019    0.0000 C.3     1  UNL1        0.0820
     19 H           4.5289    2.5403    0.0000 H       1  UNL1        0.0309
     20 H           3.8301   -0.0677    0.0000 H       1  UNL1        0.0351
     21 H           3.8901    3.2343    0.0000 H       1  UNL1        0.0274
     22 H           2.9591    2.7939    0.0000 H       1  UNL1        0.0274
     23 H           2.2706    2.0281    0.0000 H       1  UNL1        0.0310
     24 H           1.6613    1.4920    0.0000 H       1  UNL1        0.0310
     25 H           5.3664   -0.3159    0.0000 H       1  UNL1        0.0274
     26 H           6.0567   -0.7144    0.0000 H       1  UNL1        0.0274
     27 H           6.6250    0.7253    0.0000 H       1  UNL1        0.0235
     28 H           6.8520    1.5722    0.0000 H       1  UNL1        0.0235
     29 H           6.0050    1.7991    0.0000 H       1  UNL1        0.0235
     30 H           1.4174    0.2348    0.0000 H       1  UNL1        0.0572
     31 H           7.5316    0.1082    0.0000 H       1  UNL1        0.0308
     32 H           6.8413    0.5067    0.0000 H       1  UNL1        0.0308
     33 H           2.2443   -1.1333    0.0000 H       1  UNL1        0.0274
     34 H           2.8856   -1.7313    0.0000 H       1  UNL1        0.0274
     35 H           3.4836   -1.0900    0.0000 H       1  UNL1        0.0274
     36 H           7.1390   -1.5068    0.0000 H       1  UNL1        0.0577
     37 H           9.4859   -0.4138    0.0000 H       1  UNL1        0.0280
     38 H           9.2590    0.4331    0.0000 H       1  UNL1        0.0280
     39 H           8.4121    0.2062    0.0000 H       1  UNL1        0.0280
     40 H           9.9121   -3.0119    0.0000 H       1  UNL1        0.0661
     41 H          10.7590   -3.2388    0.0000 H       1  UNL1        0.0661
     42 H          10.9859   -2.3919    0.0000 H       1  UNL1        0.0661
@<TRIPOS>BOND
     1     1    17    1
     2     1    18    1
     3     2    17    2
     4     3     4    1
     5     3     5    1
     6     3     8    1
     7     3    10    1
     8     4     6    1
     9     4     7    1
    10     4    19    1
    11     5     6    1
    12     5     9    1
    13     5    20    1
    14     6    21    1
    15     6    22    1
    16     7    11    1
    17     7    23    1
    18     7    24    1
    19     8    12    1
    20     8    25    1
    21     8    26    1
    22     9    11    2
    23     9    13    1
    24    10    27    1
    25    10    28    1
    26    10    29    1
    27    11    30    1
    28    12    14    1
    29    12    31    1
    30    12    32    1
    31    13    33    1
    32    13    34    1
    33    13    35    1
    34    14    15    2
    35    14    36    1
    36    15    16    1
    37    15    17    1
    38    16    37    1
    39    16    38    1
    40    16    39    1
    41    18    40    1
    42    18    41    1
    43    18    42    1
