@<TRIPOS>MOLECULE
IMPHY015576
 59 60 0 0 0
SMALL
GASTEIGER

@<TRIPOS>ATOM
      1 O           5.5321    0.1581    0.0000 O.3     1  UNL1       -0.4575
      2 O           4.6660   -1.3419    0.0000 O.2     1  UNL1       -0.2448
      3 O           2.9176   -1.3765    0.0000 O.3     1  UNL1       -0.5059
      4 C           6.3981    1.6581    0.0000 C.3     1  UNL1       -0.0153
      5 C           5.5321    1.1581    0.0000 C.3     1  UNL1        0.1074
      6 C           7.2641    1.1581    0.0000 C.3     1  UNL1       -0.0497
      7 C           8.1301    1.6581    0.0000 C.3     1  UNL1       -0.0529
      8 C           8.9962    1.1581    0.0000 C.3     1  UNL1       -0.0531
      9 C           9.8622    1.6581    0.0000 C.3     1  UNL1       -0.0531
     10 C          10.7282    1.1581    0.0000 C.3     1  UNL1       -0.0531
     11 C          11.5942    1.6581    0.0000 C.3     1  UNL1       -0.0531
     12 C           4.6660    1.6581    0.0000 C.3     1  UNL1        0.0105
     13 C          12.4603    1.1581    0.0000 C.3     1  UNL1       -0.0531
     14 C          13.3263    1.6581    0.0000 C.3     1  UNL1       -0.0531
     15 C           3.8000    1.1581    0.0000 C.ar    1  UNL1       -0.0264
     16 C          14.1923    1.1581    0.0000 C.3     1  UNL1       -0.0531
     17 C           3.8000    0.1581    0.0000 C.ar    1  UNL1        0.1035
     18 C          15.0583    1.6581    0.0000 C.3     1  UNL1       -0.0533
     19 C           4.6660   -0.3419    0.0000 C.2     1  UNL1        0.3433
     20 C           2.9061    1.6927    0.0000 C.ar    1  UNL1       -0.0574
     21 C          15.9244    1.1581    0.0000 C.3     1  UNL1       -0.0559
     22 C           2.9061   -0.3766    0.0000 C.ar    1  UNL1        0.1311
     23 C           2.0000    1.1789    0.0000 C.ar    1  UNL1       -0.0580
     24 C           2.0000    0.1372    0.0000 C.ar    1  UNL1       -0.0193
     25 C          16.7904    1.6581    0.0000 C.3     1  UNL1       -0.0653
     26 H           6.7966    2.1330    0.0000 H       1  UNL1        0.0301
     27 H           5.9996    2.1330    0.0000 H       1  UNL1        0.0301
     28 H           6.0690    0.8481    0.0000 H       1  UNL1        0.0737
     29 H           6.8656    0.6831    0.0000 H       1  UNL1        0.0266
     30 H           7.6626    0.6831    0.0000 H       1  UNL1        0.0266
     31 H           8.5287    2.1330    0.0000 H       1  UNL1        0.0265
     32 H           7.7316    2.1330    0.0000 H       1  UNL1        0.0265
     33 H           8.5976    0.6831    0.0000 H       1  UNL1        0.0265
     34 H           9.3947    0.6831    0.0000 H       1  UNL1        0.0265
     35 H          10.2607    2.1330    0.0000 H       1  UNL1        0.0265
     36 H           9.4637    2.1330    0.0000 H       1  UNL1        0.0265
     37 H          10.3297    0.6831    0.0000 H       1  UNL1        0.0265
     38 H          11.1267    0.6831    0.0000 H       1  UNL1        0.0265
     39 H          11.9928    2.1330    0.0000 H       1  UNL1        0.0265
     40 H          11.1957    2.1330    0.0000 H       1  UNL1        0.0265
     41 H           5.0646    2.1330    0.0000 H       1  UNL1        0.0349
     42 H           4.2675    2.1330    0.0000 H       1  UNL1        0.0349
     43 H          12.0617    0.6831    0.0000 H       1  UNL1        0.0265
     44 H          12.8588    0.6831    0.0000 H       1  UNL1        0.0265
     45 H          13.7248    2.1330    0.0000 H       1  UNL1        0.0265
     46 H          12.9278    2.1330    0.0000 H       1  UNL1        0.0265
     47 H          13.7938    0.6831    0.0000 H       1  UNL1        0.0265
     48 H          14.5908    0.6831    0.0000 H       1  UNL1        0.0265
     49 H          15.4569    2.1330    0.0000 H       1  UNL1        0.0265
     50 H          14.6598    2.1330    0.0000 H       1  UNL1        0.0265
     51 H           2.9132    2.3127    0.0000 H       1  UNL1        0.0621
     52 H          15.5258    0.6831    0.0000 H       1  UNL1        0.0263
     53 H          16.3229    0.6831    0.0000 H       1  UNL1        0.0263
     54 H           1.4643    1.4909    0.0000 H       1  UNL1        0.0619
     55 H           1.4643   -0.1748    0.0000 H       1  UNL1        0.0654
     56 H          17.1004    1.1211    0.0000 H       1  UNL1        0.0230
     57 H          17.3273    1.9681    0.0000 H       1  UNL1        0.0230
     58 H          16.4804    2.1950    0.0000 H       1  UNL1        0.0230
     59 H           2.3843   -1.6927    0.0000 H       1  UNL1        0.2922
@<TRIPOS>BOND
     1     1     5    1
     2     1    19    1
     3     2    19    2
     4     3    22    1
     5     3    59    1
     6     4     5    1
     7     4     6    1
     8     4    26    1
     9     4    27    1
    10     5    12    1
    11     5    28    1
    12     6     7    1
    13     6    29    1
    14     6    30    1
    15     7     8    1
    16     7    31    1
    17     7    32    1
    18     8     9    1
    19     8    33    1
    20     8    34    1
    21     9    10    1
    22     9    35    1
    23     9    36    1
    24    10    11    1
    25    10    37    1
    26    10    38    1
    27    11    13    1
    28    11    39    1
    29    11    40    1
    30    12    15    1
    31    12    41    1
    32    12    42    1
    33    13    14    1
    34    13    43    1
    35    13    44    1
    36    14    16    1
    37    14    45    1
    38    14    46    1
    39    15    17   ar
    40    15    20   ar
    41    16    18    1
    42    16    47    1
    43    16    48    1
    44    17    19    1
    45    17    22   ar
    46    18    21    1
    47    18    49    1
    48    18    50    1
    49    20    23   ar
    50    20    51    1
    51    21    25    1
    52    21    52    1
    53    21    53    1
    54    22    24   ar
    55    23    24   ar
    56    23    54    1
    57    24    55    1
    58    25    56    1
    59    25    57    1
    60    25    58    1
