@<TRIPOS>MOLECULE
IMPHY004875
 53 55 0 0 0
SMALL
GASTEIGER

@<TRIPOS>ATOM
      1 O           4.2690   -1.8450    0.0000 O.3     1  UNL1       -0.3313
      2 O           2.5369   -3.8450    0.0000 O.3     1  UNL1       -0.3865
      3 O           4.2690   -4.8450    0.0000 O.3     1  UNL1       -0.3864
      4 O           6.0010   -1.8450    0.0000 O.3     1  UNL1       -0.4607
      5 O           6.0010   -3.8450    0.0000 O.3     1  UNL1       -0.3829
      6 O           2.5369   -0.8450    0.0000 O.3     1  UNL1       -0.3924
      7 O           4.2690    1.1550    0.0000 O.3     1  UNL1       -0.5066
      8 O          11.1972    4.1550    0.0000 O.3     1  UNL1       -0.4951
      9 C           3.4030   -3.3450    0.0000 C.3     1  UNL1        0.1120
     10 C           4.2690   -3.8450    0.0000 C.3     1  UNL1        0.1152
     11 C           3.4030   -2.3450    0.0000 C.3     1  UNL1        0.1140
     12 C           5.1350   -3.3450    0.0000 C.3     1  UNL1        0.1454
     13 C           5.1350   -2.3450    0.0000 C.3     1  UNL1        0.2308
     14 C           2.5369   -1.8450    0.0000 C.3     1  UNL1        0.0731
     15 C           6.0010   -0.8450    0.0000 C.ar    1  UNL1        0.1280
     16 C           6.8671   -0.3450    0.0000 C.ar    1  UNL1       -0.0124
     17 C           5.1350   -0.3450    0.0000 C.ar    1  UNL1        0.0217
     18 C           6.8671    0.6550    0.0000 C.ar    1  UNL1       -0.0181
     19 C           5.1350    0.6550    0.0000 C.ar    1  UNL1        0.1209
     20 C           6.0010    1.1550    0.0000 C.ar    1  UNL1       -0.0128
     21 C           7.7331    1.1550    0.0000 C.2     1  UNL1       -0.0538
     22 C           7.7331    2.1550    0.0000 C.2     1  UNL1       -0.0540
     23 C           8.5991    2.6550    0.0000 C.ar    1  UNL1       -0.0248
     24 C           9.4651    2.1550    0.0000 C.ar    1  UNL1       -0.0511
     25 C           8.5991    3.6550    0.0000 C.ar    1  UNL1       -0.0511
     26 C          10.3312    2.6550    0.0000 C.ar    1  UNL1       -0.0194
     27 C           9.4651    4.1550    0.0000 C.ar    1  UNL1       -0.0194
     28 C          10.3312    3.6550    0.0000 C.ar    1  UNL1        0.1201
     29 C          11.1972    5.1550    0.0000 C.3     1  UNL1        0.0788
     30 H           3.4030   -4.1950    0.0000 H       1  UNL1        0.0647
     31 H           5.0051   -4.2700    0.0000 H       1  UNL1        0.0648
     32 H           3.4030   -1.4950    0.0000 H       1  UNL1        0.0647
     33 H           5.8711   -2.9200    0.0000 H       1  UNL1        0.0683
     34 H           5.1350   -1.4950    0.0000 H       1  UNL1        0.1084
     35 H           1.9264   -1.7373    0.0000 H       1  UNL1        0.0584
     36 H           2.3249   -2.4276    0.0000 H       1  UNL1        0.0584
     37 H           2.0000   -3.5350    0.0000 H       1  UNL1        0.2100
     38 H           3.7320   -5.1550    0.0000 H       1  UNL1        0.2100
     39 H           6.5380   -3.5350    0.0000 H       1  UNL1        0.2102
     40 H           2.0000   -0.5350    0.0000 H       1  UNL1        0.2095
     41 H           7.4040   -0.6550    0.0000 H       1  UNL1        0.0660
     42 H           4.5981   -0.6550    0.0000 H       1  UNL1        0.0691
     43 H           6.0010    1.7750    0.0000 H       1  UNL1        0.0660
     44 H           8.2700    0.8450    0.0000 H       1  UNL1        0.0624
     45 H           7.1962    2.4650    0.0000 H       1  UNL1        0.0624
     46 H           4.2690    1.7750    0.0000 H       1  UNL1        0.2921
     47 H           9.4651    1.5350    0.0000 H       1  UNL1        0.0625
     48 H           8.0622    3.9650    0.0000 H       1  UNL1        0.0625
     49 H          10.8681    2.3450    0.0000 H       1  UNL1        0.0654
     50 H           9.4651    4.7750    0.0000 H       1  UNL1        0.0654
     51 H          11.8172    5.1550    0.0000 H       1  UNL1        0.0660
     52 H          11.1972    5.7750    0.0000 H       1  UNL1        0.0660
     53 H          10.5772    5.1550    0.0000 H       1  UNL1        0.0660
@<TRIPOS>BOND
     1     1    11    1
     2     1    13    1
     3     2     9    1
     4     2    37    1
     5     3    10    1
     6     3    38    1
     7     4    13    1
     8     4    15    1
     9     5    12    1
    10     5    39    1
    11     6    14    1
    12     6    40    1
    13     7    19    1
    14     7    46    1
    15     8    28    1
    16     8    29    1
    17     9    10    1
    18     9    11    1
    19     9    30    1
    20    10    12    1
    21    10    31    1
    22    11    14    1
    23    11    32    1
    24    12    13    1
    25    12    33    1
    26    13    34    1
    27    14    35    1
    28    14    36    1
    29    15    16   ar
    30    15    17   ar
    31    16    18   ar
    32    16    41    1
    33    17    19   ar
    34    17    42    1
    35    18    20   ar
    36    18    21    1
    37    19    20   ar
    38    20    43    1
    39    21    22    2
    40    21    44    1
    41    22    23    1
    42    22    45    1
    43    23    24   ar
    44    23    25   ar
    45    24    26   ar
    46    24    47    1
    47    25    27   ar
    48    25    48    1
    49    26    28   ar
    50    26    49    1
    51    27    28   ar
    52    27    50    1
    53    29    51    1
    54    29    52    1
    55    29    53    1
