@<TRIPOS>MOLECULE
IMPHY001285
 78 82 0 0 0
SMALL
GASTEIGER

@<TRIPOS>ATOM
      1 O           2.5357   -2.6574    0.0000 O.3     1  UNL1       -0.3912
      2 C           7.0628   -1.1050    0.0000 C.3     1  UNL1       -0.0194
      3 C           6.1968   -0.6051    0.0000 C.3     1  UNL1       -0.0257
      4 C           5.2868   -1.1119    0.0000 C.3     1  UNL1       -0.0250
      5 C           7.9288   -0.6051    0.0000 C.3     1  UNL1       -0.0051
      6 C           5.2787   -2.1535    0.0000 C.3     1  UNL1       -0.0278
      7 C           7.0789   -2.1466    0.0000 C.3     1  UNL1       -0.0463
      8 C           6.1808   -2.6743    0.0000 C.3     1  UNL1       -0.0486
      9 C           4.3433   -2.7032    0.0000 C.3     1  UNL1       -0.0056
     10 C           7.9288    0.3949    0.0000 C.2     1  UNL1       -0.0634
     11 C           6.1968    0.3949    0.0000 C.3     1  UNL1       -0.0306
     12 C           4.3599   -0.5478    0.0000 C.3     1  UNL1       -0.0447
     13 C           8.8228    0.9296    0.0000 C.3     1  UNL1       -0.0137
     14 C           8.8228   -1.1397    0.0000 C.3     1  UNL1       -0.0431
     15 C           9.7288    0.4158    0.0000 C.3     1  UNL1       -0.0342
     16 C           7.7056   -1.8711    0.0000 C.3     1  UNL1       -0.0585
     17 C           3.4037   -2.1607    0.0000 C.3     1  UNL1        0.0606
     18 C           5.2945   -0.1119    0.0000 C.3     1  UNL1       -0.0590
     19 C           9.7288   -0.6259    0.0000 C.3     1  UNL1       -0.0489
     20 C           7.0628    0.8949    0.0000 C.2     1  UNL1       -0.0836
     21 C           3.4120   -1.0758    0.0000 C.3     1  UNL1       -0.0258
     22 C           8.2709   -1.5447    0.0000 C.3     1  UNL1       -0.0553
     23 C           8.7977    2.0143    0.0000 C.3     1  UNL1       -0.0345
     24 C          10.6726    0.9510    0.0000 C.3     1  UNL1       -0.0494
     25 C           3.8467   -3.5712    0.0000 C.3     1  UNL1       -0.0572
     26 C           4.8466   -3.5673    0.0000 C.3     1  UNL1       -0.0572
     27 C           9.7288    2.5712    0.0000 C.3     1  UNL1       -0.0407
     28 C          10.6726    2.0360    0.0000 C.3     1  UNL1       -0.0499
     29 C           7.9222    2.4975    0.0000 C.3     1  UNL1       -0.0616
     30 C           9.7173    3.5712    0.0000 C.3     1  UNL1       -0.0622
     31 H           6.9329   -0.1801    0.0000 H       1  UNL1        0.0315
     32 H           5.2820   -3.0035    0.0000 H       1  UNL1        0.0312
     33 H           7.2969   -2.7270    0.0000 H       1  UNL1        0.0271
     34 H           7.6880   -2.0311    0.0000 H       1  UNL1        0.0271
     35 H           5.7835   -3.1503    0.0000 H       1  UNL1        0.0268
     36 H           6.5818   -3.1472    0.0000 H       1  UNL1        0.0268
     37 H           5.9847    0.9776    0.0000 H       1  UNL1        0.0310
     38 H           5.5862    0.2873    0.0000 H       1  UNL1        0.0310
     39 H           4.7681   -0.0812    0.0000 H       1  UNL1        0.0271
     40 H           3.9700   -0.0658    0.0000 H       1  UNL1        0.0271
     41 H           8.0786    1.3404    0.0000 H       1  UNL1        0.0351
     42 H           8.4182   -1.6095    0.0000 H       1  UNL1        0.0274
     43 H           9.2164   -1.6187    0.0000 H       1  UNL1        0.0274
     44 H          10.4633   -0.0121    0.0000 H       1  UNL1        0.0307
     45 H           7.2306   -2.2696    0.0000 H       1  UNL1        0.0235
     46 H           8.1041   -2.3460    0.0000 H       1  UNL1        0.0235
     47 H           8.1805   -1.4726    0.0000 H       1  UNL1        0.0235
     48 H           3.4025   -2.7807    0.0000 H       1  UNL1        0.0599
     49 H           5.9145   -0.1167    0.0000 H       1  UNL1        0.0235
     50 H           5.2993    0.5081    0.0000 H       1  UNL1        0.0235
     51 H           4.6745   -0.1071    0.0000 H       1  UNL1        0.0235
     52 H           9.9379   -1.2096    0.0000 H       1  UNL1        0.0268
     53 H          10.3397   -0.5198    0.0000 H       1  UNL1        0.0268
     54 H           7.0628    1.5150    0.0000 H       1  UNL1        0.0572
     55 H           3.2075   -0.4905    0.0000 H       1  UNL1        0.0290
     56 H           2.8004   -1.1771    0.0000 H       1  UNL1        0.0290
     57 H           7.6884   -1.7568    0.0000 H       1  UNL1        0.0238
     58 H           8.4830   -2.1273    0.0000 H       1  UNL1        0.0238
     59 H           8.8535   -1.3326    0.0000 H       1  UNL1        0.0238
     60 H           8.2674    1.6930    0.0000 H       1  UNL1        0.0307
     61 H          10.8817    0.3673    0.0000 H       1  UNL1        0.0268
     62 H          11.2835    1.0571    0.0000 H       1  UNL1        0.0268
     63 H           3.3085   -3.2632    0.0000 H       1  UNL1        0.0236
     64 H           3.5387   -4.1093    0.0000 H       1  UNL1        0.0236
     65 H           4.3848   -3.8791    0.0000 H       1  UNL1        0.0236
     66 H           4.3109   -3.8794    0.0000 H       1  UNL1        0.0236
     67 H           5.1587   -4.1030    0.0000 H       1  UNL1        0.0236
     68 H           5.3824   -3.2553    0.0000 H       1  UNL1        0.0236
     69 H          10.2628    2.8864    0.0000 H       1  UNL1        0.0301
     70 H          11.2835    1.9299    0.0000 H       1  UNL1        0.0268
     71 H          10.8817    2.6197    0.0000 H       1  UNL1        0.0268
     72 H           8.2218    3.0403    0.0000 H       1  UNL1        0.0233
     73 H           7.3794    2.7971    0.0000 H       1  UNL1        0.0233
     74 H           7.6226    1.9547    0.0000 H       1  UNL1        0.0233
     75 H           2.0000   -2.3453    0.0000 H       1  UNL1        0.2098
     76 H          10.3372    3.5783    0.0000 H       1  UNL1        0.0233
     77 H           9.7101    4.1911    0.0000 H       1  UNL1        0.0233
     78 H           9.0973    3.5640    0.0000 H       1  UNL1        0.0233
@<TRIPOS>BOND
     1    17     1    1
     2     1    75    1
     3     2     3    1
     4     2     5    1
     5     2     7    1
     6     2    16    1
     7     3     4    1
     8     3    11    1
     9     3    31    1
    10     4     6    1
    11     4    12    1
    12     4    18    1
    13     5    10    1
    14     5    14    1
    15     5    22    1
    16     6     8    1
    17     6     9    1
    18     6    32    1
    19     7     8    1
    20     7    33    1
    21     7    34    1
    22     8    35    1
    23     8    36    1
    24     9    17    1
    25     9    25    1
    26     9    26    1
    27    10    13    1
    28    10    20    2
    29    11    20    1
    30    11    37    1
    31    11    38    1
    32    12    21    1
    33    12    39    1
    34    12    40    1
    35    13    15    1
    36    13    23    1
    37    13    41    1
    38    14    19    1
    39    14    42    1
    40    14    43    1
    41    15    19    1
    42    15    24    1
    43    15    44    1
    44    16    45    1
    45    16    46    1
    46    16    47    1
    47    17    21    1
    48    17    48    1
    49    18    49    1
    50    18    50    1
    51    18    51    1
    52    19    52    1
    53    19    53    1
    54    20    54    1
    55    21    55    1
    56    21    56    1
    57    22    57    1
    58    22    58    1
    59    22    59    1
    60    23    27    1
    61    23    29    1
    62    23    60    1
    63    24    28    1
    64    24    61    1
    65    24    62    1
    66    25    63    1
    67    25    64    1
    68    25    65    1
    69    26    66    1
    70    26    67    1
    71    26    68    1
    72    27    28    1
    73    27    30    1
    74    27    69    1
    75    28    70    1
    76    28    71    1
    77    29    72    1
    78    29    73    1
    79    29    74    1
    80    30    76    1
    81    30    77    1
    82    30    78    1
