@<TRIPOS>MOLECULE
IMPHY016419
 25 25 0 0 0
SMALL
GASTEIGER

@<TRIPOS>ATOM
      1 O           5.4641   -1.1230    0.0000 O.3     1  UNL1       -0.3877
      2 O           2.0000    0.8770    0.0000 O.2     1  UNL1       -0.2918
      3 C           3.7320    0.8770    0.0000 C.3     1  UNL1        0.0303
      4 C           4.5981    0.3770    0.0000 C.3     1  UNL1       -0.0110
      5 C           4.5981   -0.6230    0.0000 C.3     1  UNL1        0.0749
      6 C           2.8660    0.3770    0.0000 C.2     1  UNL1        0.1644
      7 C           4.2320    1.7430    0.0000 C.3     1  UNL1       -0.0527
      8 C           3.2320    1.7430    0.0000 C.3     1  UNL1       -0.0527
      9 C           2.8660   -0.6230    0.0000 C.2     1  UNL1       -0.0090
     10 C           3.7320   -1.1230    0.0000 C.2     1  UNL1       -0.0496
     11 C           2.0000   -1.1230    0.0000 C.3     1  UNL1       -0.0366
     12 H           5.2087    0.2693    0.0000 H       1  UNL1        0.0303
     13 H           4.8101    0.9596    0.0000 H       1  UNL1        0.0303
     14 H           4.5981   -1.2430    0.0000 H       1  UNL1        0.0638
     15 H           4.7690    1.4330    0.0000 H       1  UNL1        0.0239
     16 H           4.5420    2.2800    0.0000 H       1  UNL1        0.0239
     17 H           3.6951    2.0530    0.0000 H       1  UNL1        0.0239
     18 H           3.7690    2.0530    0.0000 H       1  UNL1        0.0239
     19 H           2.9220    2.2800    0.0000 H       1  UNL1        0.0239
     20 H           2.6951    1.4330    0.0000 H       1  UNL1        0.0239
     21 H           3.7320   -1.7430    0.0000 H       1  UNL1        0.0601
     22 H           1.6900   -0.5861    0.0000 H       1  UNL1        0.0279
     23 H           1.4631   -1.4330    0.0000 H       1  UNL1        0.0279
     24 H           2.3100   -1.6600    0.0000 H       1  UNL1        0.0279
     25 H           5.4641   -1.7430    0.0000 H       1  UNL1        0.2102
@<TRIPOS>BOND
     1     5     1    1
     2     1    25    1
     3     2     6    2
     4     3     4    1
     5     3     6    1
     6     3     7    1
     7     3     8    1
     8     4     5    1
     9     4    12    1
    10     4    13    1
    11     5    10    1
    12     5    14    1
    13     6     9    1
    14     7    15    1
    15     7    16    1
    16     7    17    1
    17     8    18    1
    18     8    19    1
    19     8    20    1
    20     9    10    2
    21     9    11    1
    22    10    21    1
    23    11    22    1
    24    11    23    1
    25    11    24    1
