@<TRIPOS>MOLECULE
IMPHY012648
 54 58 0 0 0
SMALL
GASTEIGER

@<TRIPOS>ATOM
      1 O           2.7098   -0.3610    0.0000 O.3     1  UNL1       -0.3369
      2 O           2.5016   -1.4028    0.0000 O.3     1  UNL1       -0.3611
      3 O           2.5491   -2.4452    0.0000 O.3     1  UNL1       -0.3718
      4 O           4.2371   -3.4198    0.0000 O.3     1  UNL1       -0.3890
      5 O           6.6364    0.7924    0.0000 O.3     1  UNL1       -0.4911
      6 O           6.5899    2.7300    0.0000 O.3     1  UNL1       -0.4914
      7 N           4.4344    0.4069    0.0000 N.3     1  UNL1       -0.2942
      8 C           4.2371   -0.5215    0.0000 C.3     1  UNL1        0.0909
      9 C           5.0591   -0.9961    0.0000 C.3     1  UNL1        0.0268
     10 C           3.4151   -0.9961    0.0000 C.3     1  UNL1        0.2169
     11 C           4.0398    0.4069    0.0000 C.3     1  UNL1        0.0022
     12 C           5.7644   -0.3610    0.0000 C.3     1  UNL1       -0.0284
     13 C           5.0591   -1.9452    0.0000 C.3     1  UNL1       -0.0125
     14 C           3.0958    0.5061    0.0000 C.3     1  UNL1        0.0893
     15 C           3.4151   -1.9452    0.0000 C.3     1  UNL1        0.1394
     16 C           4.9542    0.7651    0.0000 C.ar    1  UNL1        0.0117
     17 C           5.3784    0.5061    0.0000 C.3     1  UNL1        0.0002
     18 C           4.2371   -2.4198    0.0000 C.3     1  UNL1        0.0873
     19 C           4.1106    1.2291    0.0000 C.ar    1  UNL1       -0.0112
     20 C           3.5864    0.9368    0.0000 C.3     1  UNL1       -0.0120
     21 C           5.7542    1.2632    0.0000 C.ar    1  UNL1        0.1656
     22 C           4.0909    2.1780    0.0000 C.ar    1  UNL1       -0.0521
     23 C           5.7345    2.2122    0.0000 C.ar    1  UNL1        0.1618
     24 C           4.9028    2.6696    0.0000 C.ar    1  UNL1       -0.0159
     25 C           2.5491   -3.4452    0.0000 C.3     1  UNL1        0.0371
     26 C           7.4852    1.3210    0.0000 C.3     1  UNL1        0.0790
     27 C           6.5692    3.7298    0.0000 C.3     1  UNL1        0.0790
     28 H           4.6564    0.4717    0.0000 H       1  UNL1        0.0313
     29 H           4.0398    1.0269    0.0000 H       1  UNL1        0.0313
     30 H           6.1289   -0.8626    0.0000 H       1  UNL1        0.0287
     31 H           6.3014   -0.0510    0.0000 H       1  UNL1        0.0287
     32 H           5.2711   -2.5278    0.0000 H       1  UNL1        0.0300
     33 H           5.6697   -1.8376    0.0000 H       1  UNL1        0.0300
     34 H           2.6158    0.8985    0.0000 H       1  UNL1        0.0648
     35 H           3.4151   -2.5652    0.0000 H       1  UNL1        0.0676
     36 H           5.9680    0.6977    0.0000 H       1  UNL1        0.0427
     37 H           5.2495    1.1125    0.0000 H       1  UNL1        0.0427
     38 H           4.7740   -2.7298    0.0000 H       1  UNL1        0.0621
     39 H           3.9150    1.4626    0.0000 H       1  UNL1        0.0391
     40 H           3.0606    1.2653    0.0000 H       1  UNL1        0.0391
     41 H           3.2578    0.4110    0.0000 H       1  UNL1        0.0391
     42 H           2.0000   -1.0384    0.0000 H       1  UNL1        0.2129
     43 H           3.5476    2.4768    0.0000 H       1  UNL1        0.0622
     44 H           4.7740   -3.7298    0.0000 H       1  UNL1        0.2099
     45 H           4.8900    3.2894    0.0000 H       1  UNL1        0.0655
     46 H           1.9291   -3.4452    0.0000 H       1  UNL1        0.0524
     47 H           2.5491   -4.0652    0.0000 H       1  UNL1        0.0524
     48 H           3.1691   -3.4452    0.0000 H       1  UNL1        0.0524
     49 H           7.8130    0.7947    0.0000 H       1  UNL1        0.0660
     50 H           8.0116    1.6488    0.0000 H       1  UNL1        0.0660
     51 H           7.1575    1.8473    0.0000 H       1  UNL1        0.0660
     52 H           7.1890    3.7427    0.0000 H       1  UNL1        0.0660
     53 H           6.5563    4.3497    0.0000 H       1  UNL1        0.0660
     54 H           5.9493    3.7169    0.0000 H       1  UNL1        0.0660
@<TRIPOS>BOND
     1     1    10    1
     2     1    14    1
     3     2    10    1
     4     2    42    1
     5     3    15    1
     6     3    25    1
     7     4    18    1
     8     4    44    1
     9     5    21    1
    10     5    26    1
    11     6    23    1
    12     6    27    1
    13     7     8    1
    14     7    17    1
    15     7    20    1
    16     8     9    1
    17     8    10    1
    18     8    11    1
    19     9    12    1
    20     9    13    1
    21     9    16    1
    22    10    15    1
    23    11    14    1
    24    11    28    1
    25    11    29    1
    26    12    17    1
    27    12    30    1
    28    12    31    1
    29    13    18    1
    30    13    32    1
    31    13    33    1
    32    14    19    1
    33    14    34    1
    34    15    18    1
    35    15    35    1
    36    16    19   ar
    37    16    21   ar
    38    17    36    1
    39    17    37    1
    40    18    38    1
    41    19    22   ar
    42    20    39    1
    43    20    40    1
    44    20    41    1
    45    21    23   ar
    46    22    24   ar
    47    22    43    1
    48    23    24   ar
    49    24    45    1
    50    25    46    1
    51    25    47    1
    52    25    48    1
    53    26    49    1
    54    26    50    1
    55    26    51    1
    56    27    52    1
    57    27    53    1
    58    27    54    1
