@<TRIPOS>MOLECULE
IMPHY014977
 27 28 0 0 0
SMALL
GASTEIGER

@<TRIPOS>ATOM
      1 O           1.7478   -2.1590    0.0000 O.2     1  UNL1       -0.2968
      2 C           4.1245    1.1644    0.0000 C.3     1  UNL1       -0.0196
      3 C           3.6467   -0.7841    0.0000 C.3     1  UNL1        0.0316
      4 C           3.3879    0.1818    0.0000 C.3     1  UNL1       -0.0283
      5 C           5.0194   -1.3761    0.0000 C.3     1  UNL1       -0.0401
      6 C           5.3614   -0.4364    0.0000 C.3     1  UNL1       -0.0484
      7 C           1.9889   -0.3270    0.0000 C.3     1  UNL1        0.0097
      8 C           2.2478   -1.2929    0.0000 C.2     1  UNL1        0.1400
      9 C           4.0200    2.1590    0.0000 C.3     1  UNL1       -0.0587
     10 C           5.0380    1.5712    0.0000 C.3     1  UNL1       -0.0587
     11 C           3.9055   -1.7500    0.0000 C.3     1  UNL1       -0.0523
     12 H           3.1679    1.0028    0.0000 H       1  UNL1        0.0310
     13 H           5.5978   -1.5994    0.0000 H       1  UNL1        0.0275
     14 H           4.7849   -1.9501    0.0000 H       1  UNL1        0.0275
     15 H           5.5557    0.1523    0.0000 H       1  UNL1        0.0268
     16 H           5.9472   -0.6396    0.0000 H       1  UNL1        0.0268
     17 H           1.3950   -0.5048    0.0000 H       1  UNL1        0.0345
     18 H           1.7940    0.2616    0.0000 H       1  UNL1        0.0345
     19 H           3.4034    2.0942    0.0000 H       1  UNL1        0.0235
     20 H           3.9552    2.7756    0.0000 H       1  UNL1        0.0235
     21 H           4.6366    2.2238    0.0000 H       1  UNL1        0.0235
     22 H           4.7858    2.1376    0.0000 H       1  UNL1        0.0235
     23 H           5.6044    1.8233    0.0000 H       1  UNL1        0.0235
     24 H           5.2902    1.0048    0.0000 H       1  UNL1        0.0235
     25 H           4.5044   -1.5896    0.0000 H       1  UNL1        0.0239
     26 H           4.0660   -2.3489    0.0000 H       1  UNL1        0.0239
     27 H           3.3066   -1.9105    0.0000 H       1  UNL1        0.0239
@<TRIPOS>BOND
     1     1     8    2
     2     2     3    1
     3     2     4    1
     4     2     9    1
     5     2    10    1
     6     3     5    1
     7     3     8    1
     8     3    11    1
     9     4     6    1
    10     4     7    1
    11     4    12    1
    12     5     6    1
    13     5    13    1
    14     5    14    1
    15     6    15    1
    16     6    16    1
    17     7     8    1
    18     7    17    1
    19     7    18    1
    20     9    19    1
    21     9    20    1
    22     9    21    1
    23    10    22    1
    24    10    23    1
    25    10    24    1
    26    11    25    1
    27    11    26    1
    28    11    27    1
