@<TRIPOS>MOLECULE
IMPHY002716
 54 57 0 0 0
SMALL
GASTEIGER

@<TRIPOS>ATOM
      1 O           4.2520    2.0950    0.0000 O.3     1  UNL1       -0.3474
      2 O           4.6520    3.6950    0.0000 O.3     1  UNL1       -0.3640
      3 O           2.0000   -0.8501    0.0000 O.2     1  UNL1       -0.2920
      4 O           6.4762   -0.3505    0.0000 O.3     1  UNL1       -0.5031
      5 O           6.5085   -2.4419    0.0000 O.3     1  UNL1       -0.4912
      6 C           4.6520    0.6950    0.0000 C.3     1  UNL1        0.0275
      7 C           3.7860    1.1950    0.0000 C.3     1  UNL1       -0.0121
      8 C           3.7860    2.1950    0.0000 C.3     1  UNL1        0.0230
      9 C           4.6520    2.6950    0.0000 C.3     1  UNL1        0.1726
     10 C           5.5180    1.1950    0.0000 C.3     1  UNL1       -0.0359
     11 C           5.5180    2.1950    0.0000 C.3     1  UNL1        0.0026
     12 C           4.2520    1.2950    0.0000 C.3     1  UNL1        0.0610
     13 C           2.8760    0.6882    0.0000 C.3     1  UNL1        0.0148
     14 C           4.6681   -0.3465    0.0000 C.ar    1  UNL1        0.0168
     15 C           3.2860    3.0610    0.0000 C.3     1  UNL1       -0.0546
     16 C           2.7860    2.1950    0.0000 C.3     1  UNL1       -0.0546
     17 C           3.7700   -0.8742    0.0000 C.ar    1  UNL1        0.0251
     18 C           2.8680   -0.3534    0.0000 C.2     1  UNL1        0.1639
     19 C           5.6200   -0.8671    0.0000 C.ar    1  UNL1        0.1633
     20 C           3.7617   -1.9592    0.0000 C.ar    1  UNL1       -0.0438
     21 C           5.6367   -1.9520    0.0000 C.ar    1  UNL1        0.1650
     22 C           4.7013   -2.5017    0.0000 C.ar    1  UNL1        0.0012
     23 C           4.7052   -3.5017    0.0000 C.3     1  UNL1       -0.0179
     24 C           3.8411   -4.0050    0.0000 C.3     1  UNL1       -0.0585
     25 C           5.5731   -3.9984    0.0000 C.3     1  UNL1       -0.0585
     26 C           7.3686   -1.9319    0.0000 C.3     1  UNL1        0.0790
     27 H           3.0499    1.6200    0.0000 H       1  UNL1        0.0321
     28 H           5.7301    0.6124    0.0000 H       1  UNL1        0.0276
     29 H           6.1286    1.3027    0.0000 H       1  UNL1        0.0276
     30 H           6.1286    2.0874    0.0000 H       1  UNL1        0.0317
     31 H           5.7301    2.7776    0.0000 H       1  UNL1        0.0317
     32 H           3.6650    1.4945    0.0000 H       1  UNL1        0.0570
     33 H           4.8454    1.4747    0.0000 H       1  UNL1        0.0570
     34 H           2.6714    1.2735    0.0000 H       1  UNL1        0.0348
     35 H           2.2643    0.5868    0.0000 H       1  UNL1        0.0348
     36 H           2.7860    2.8150    0.0000 H       1  UNL1        0.0237
     37 H           3.8229    3.3710    0.0000 H       1  UNL1        0.0237
     38 H           2.9760    3.5980    0.0000 H       1  UNL1        0.0237
     39 H           2.1660    2.1950    0.0000 H       1  UNL1        0.0237
     40 H           2.7860    1.5750    0.0000 H       1  UNL1        0.0237
     41 H           2.7490    2.7511    0.0000 H       1  UNL1        0.0237
     42 H           5.1889    4.0050    0.0000 H       1  UNL1        0.2128
     43 H           3.2235   -2.2671    0.0000 H       1  UNL1        0.0629
     44 H           4.7075   -4.1217    0.0000 H       1  UNL1        0.0345
     45 H           7.0190   -0.6501    0.0000 H       1  UNL1        0.2923
     46 H           5.2652   -4.5365    0.0000 H       1  UNL1        0.0235
     47 H           6.1112   -4.3063    0.0000 H       1  UNL1        0.0235
     48 H           5.8810   -3.4602    0.0000 H       1  UNL1        0.0235
     49 H           3.5290   -3.4693    0.0000 H       1  UNL1        0.0235
     50 H           3.3053   -4.3171    0.0000 H       1  UNL1        0.0235
     51 H           4.1531   -4.5408    0.0000 H       1  UNL1        0.0235
     52 H           7.6848   -2.4653    0.0000 H       1  UNL1        0.0660
     53 H           7.9020   -1.6158    0.0000 H       1  UNL1        0.0660
     54 H           7.0525   -1.3986    0.0000 H       1  UNL1        0.0660
@<TRIPOS>BOND
     1     1     9    1
     2     1    12    1
     3     9     2    1
     4     2    42    1
     5     3    18    2
     6     4    19    1
     7     4    45    1
     8     5    21    1
     9     5    26    1
    10     6     7    1
    11     6    10    1
    12     6    12    1
    13     6    14    1
    14     7     8    1
    15     7    13    1
    16     7    27    1
    17     8     9    1
    18     8    15    1
    19     8    16    1
    20     9    11    1
    21    10    11    1
    22    10    28    1
    23    10    29    1
    24    11    30    1
    25    11    31    1
    26    12    32    1
    27    12    33    1
    28    13    18    1
    29    13    34    1
    30    13    35    1
    31    14    17   ar
    32    14    19   ar
    33    15    37    1
    34    15    38    1
    35    15    41    1
    36    16    36    1
    37    16    39    1
    38    16    40    1
    39    17    18    1
    40    17    20   ar
    41    19    21   ar
    42    20    22   ar
    43    20    43    1
    44    21    22   ar
    45    22    23    1
    46    23    24    1
    47    23    25    1
    48    23    44    1
    49    24    49    1
    50    24    50    1
    51    24    51    1
    52    25    46    1
    53    25    47    1
    54    25    48    1
    55    26    52    1
    56    26    53    1
    57    26    54    1
