@<TRIPOS>MOLECULE
IMPHY004608
 58 60 0 0 0
SMALL
GASTEIGER

@<TRIPOS>ATOM
      1 O           7.7331   -2.0950    0.0000 O.3     1  UNL1       -0.4465
      2 O           6.0010   -0.0950    0.0000 O.3     1  UNL1       -0.4780
      3 O           4.2690    0.9050    0.0000 O.3     1  UNL1       -0.5033
      4 O           2.5369   -0.0950    0.0000 O.3     1  UNL1       -0.5033
      5 O           7.7331   -0.0950    0.0000 O.2     1  UNL1       -0.2468
      6 O          13.7953   -1.5950    0.0000 O.3     1  UNL1       -0.5029
      7 O          13.7953   -3.5950    0.0000 O.3     1  UNL1       -0.5033
      8 O           8.5991   -0.5950    0.0000 O.2     1  UNL1       -0.2456
      9 O          12.9292    2.9050    0.0000 O.3     1  UNL1       -0.5033
     10 O          11.1972    3.9050    0.0000 O.3     1  UNL1       -0.5033
     11 C           6.0010   -2.0950    0.0000 C.3     1  UNL1        0.0203
     12 C           6.8671   -1.5950    0.0000 C.3     1  UNL1        0.2029
     13 C           5.1350   -1.5950    0.0000 C.ar    1  UNL1       -0.0396
     14 C           5.1350   -0.5950    0.0000 C.ar    1  UNL1       -0.0132
     15 C           4.2690   -2.0950    0.0000 C.ar    1  UNL1       -0.0548
     16 C          12.0632   -1.5950    0.0000 C.ar    1  UNL1        0.0272
     17 C          11.1972   -2.0950    0.0000 C.ar    1  UNL1       -0.0139
     18 C           6.8671   -0.5950    0.0000 C.2     1  UNL1        0.3463
     19 C           4.2690   -0.0950    0.0000 C.ar    1  UNL1        0.1585
     20 C           3.4030   -1.5950    0.0000 C.ar    1  UNL1       -0.0163
     21 C           3.4030   -0.5950    0.0000 C.ar    1  UNL1        0.1582
     22 C          12.9292   -2.0950    0.0000 C.ar    1  UNL1        0.1661
     23 C          10.3312   -1.5950    0.0000 C.2     1  UNL1       -0.0472
     24 C          11.1972   -3.0950    0.0000 C.ar    1  UNL1       -0.0503
     25 C          12.0632   -0.5950    0.0000 C.2     1  UNL1       -0.0499
     26 C           8.5991   -1.5950    0.0000 C.2     1  UNL1        0.3327
     27 C          12.9292   -3.0950    0.0000 C.ar    1  UNL1        0.1589
     28 C           9.4651   -2.0950    0.0000 C.2     1  UNL1        0.0231
     29 C          12.0632   -3.5950    0.0000 C.ar    1  UNL1       -0.0159
     30 C          11.1972   -0.0950    0.0000 C.2     1  UNL1       -0.0538
     31 C          11.1972    0.9050    0.0000 C.ar    1  UNL1       -0.0213
     32 C          12.0632    1.4050    0.0000 C.ar    1  UNL1       -0.0094
     33 C          10.3312    1.4050    0.0000 C.ar    1  UNL1       -0.0509
     34 C          12.0632    2.4050    0.0000 C.ar    1  UNL1        0.1588
     35 C          10.3312    2.4050    0.0000 C.ar    1  UNL1       -0.0160
     36 C          11.1972    2.9050    0.0000 C.ar    1  UNL1        0.1582
     37 H           5.6025   -2.5700    0.0000 H       1  UNL1        0.0355
     38 H           6.3996   -2.5700    0.0000 H       1  UNL1        0.0355
     39 H           7.4040   -1.2850    0.0000 H       1  UNL1        0.0856
     40 H           5.6720   -0.2850    0.0000 H       1  UNL1        0.0658
     41 H           4.2690   -2.7150    0.0000 H       1  UNL1        0.0621
     42 H           2.8660   -1.9050    0.0000 H       1  UNL1        0.0655
     43 H          10.3312   -0.9750    0.0000 H       1  UNL1        0.0626
     44 H          10.6603   -3.4050    0.0000 H       1  UNL1        0.0625
     45 H          12.6002   -0.2850    0.0000 H       1  UNL1        0.0625
     46 H           9.4651   -2.7150    0.0000 H       1  UNL1        0.0689
     47 H          12.0632   -4.2150    0.0000 H       1  UNL1        0.0655
     48 H          10.6603   -0.4050    0.0000 H       1  UNL1        0.0624
     49 H          12.6002    1.0950    0.0000 H       1  UNL1        0.0661
     50 H           9.7942    1.0950    0.0000 H       1  UNL1        0.0625
     51 H           6.0010    0.5250    0.0000 H       1  UNL1        0.2952
     52 H           3.7320    1.2150    0.0000 H       1  UNL1        0.2923
     53 H           9.7942    2.7150    0.0000 H       1  UNL1        0.0655
     54 H           2.0000   -0.4050    0.0000 H       1  UNL1        0.2923
     55 H          14.3322   -1.9050    0.0000 H       1  UNL1        0.2923
     56 H          13.7953   -4.2150    0.0000 H       1  UNL1        0.2923
     57 H          12.9292    3.5250    0.0000 H       1  UNL1        0.2923
     58 H          10.6603    4.2150    0.0000 H       1  UNL1        0.2923
@<TRIPOS>BOND
     1    12     1    1
     2     1    26    1
     3     2    18    1
     4     2    51    1
     5     3    19    1
     6     3    52    1
     7     4    21    1
     8     4    54    1
     9     5    18    2
    10     6    22    1
    11     6    55    1
    12     7    27    1
    13     7    56    1
    14     8    26    2
    15     9    34    1
    16     9    57    1
    17    10    36    1
    18    10    58    1
    19    11    12    1
    20    11    13    1
    21    11    37    1
    22    11    38    1
    23    12    18    1
    24    12    39    1
    25    13    14   ar
    26    13    15   ar
    27    14    19   ar
    28    14    40    1
    29    15    20   ar
    30    15    41    1
    31    16    17   ar
    32    16    22   ar
    33    16    25    1
    34    17    23    1
    35    17    24   ar
    36    19    21   ar
    37    20    21   ar
    38    20    42    1
    39    22    27   ar
    40    23    28    2
    41    23    43    1
    42    24    29   ar
    43    24    44    1
    44    25    30    2
    45    25    45    1
    46    26    28    1
    47    27    29   ar
    48    28    46    1
    49    29    47    1
    50    30    31    1
    51    30    48    1
    52    31    32   ar
    53    31    33   ar
    54    32    34   ar
    55    32    49    1
    56    33    35   ar
    57    33    50    1
    58    34    36   ar
    59    35    36   ar
    60    35    53    1
