@<TRIPOS>MOLECULE
IMPHY008734
 21 21 0 0 0
SMALL
GASTEIGER

@<TRIPOS>ATOM
      1 O           4.2690    2.3100    0.0000 O.3     1  UNL1       -0.4885
      2 O           2.5369    1.3100    0.0000 O.3     1  UNL1       -0.5032
      3 O           6.0010    1.3100    0.0000 O.3     1  UNL1       -0.5032
      4 O           3.4030   -2.1900    0.0000 O.3     1  UNL1       -0.4771
      5 O           5.1350   -2.1900    0.0000 O.2     1  UNL1       -0.2451
      6 C           4.2690    1.3100    0.0000 C.ar    1  UNL1        0.2031
      7 C           4.2690   -0.6900    0.0000 C.ar    1  UNL1        0.0660
      8 C           3.4030    0.8100    0.0000 C.ar    1  UNL1        0.1629
      9 C           5.1350    0.8100    0.0000 C.ar    1  UNL1        0.1629
     10 C           3.4030   -0.1900    0.0000 C.ar    1  UNL1       -0.0023
     11 C           5.1350   -0.1900    0.0000 C.ar    1  UNL1       -0.0023
     12 C           4.2690   -1.6900    0.0000 C.2     1  UNL1        0.3370
     13 C           5.1350    2.8100    0.0000 C.3     1  UNL1        0.0791
     14 H           2.8660   -0.5000    0.0000 H       1  UNL1        0.0663
     15 H           5.6720   -0.5000    0.0000 H       1  UNL1        0.0663
     16 H           5.4450    2.2731    0.0000 H       1  UNL1        0.0660
     17 H           5.6720    3.1200    0.0000 H       1  UNL1        0.0660
     18 H           4.8250    3.3469    0.0000 H       1  UNL1        0.0660
     19 H           2.0000    1.0000    0.0000 H       1  UNL1        0.2923
     20 H           6.5380    1.0000    0.0000 H       1  UNL1        0.2923
     21 H           3.4030   -2.8100    0.0000 H       1  UNL1        0.2954
@<TRIPOS>BOND
     1     1     6    1
     2     1    13    1
     3     2     8    1
     4     2    19    1
     5     3     9    1
     6     3    20    1
     7     4    12    1
     8     4    21    1
     9     5    12    2
    10     6     8   ar
    11     6     9   ar
    12     7    10   ar
    13     7    11   ar
    14     7    12    1
    15     8    10   ar
    16     9    11   ar
    17    10    14    1
    18    11    15    1
    19    13    16    1
    20    13    17    1
    21    13    18    1
