@<TRIPOS>MOLECULE
IMPHY009002
 29 32 0 0 0
SMALL
GASTEIGER

@<TRIPOS>ATOM
      1 O           2.2298    0.3475    0.0000 O.2     1  UNL1       -0.2631
      2 O           2.0000   -1.6879    0.0000 O.2     1  UNL1       -0.2821
      3 N           3.9900    0.1593    0.0000 N.ar    1  UNL1       -0.2712
      4 N           5.6097   -1.9116    0.0000 N.ar    1  UNL1       -0.3484
      5 C           4.7990   -0.4285    0.0000 C.ar    1  UNL1        0.0815
      6 C           5.6080    0.1593    0.0000 C.ar    1  UNL1        0.0114
      7 C           5.2990    1.1104    0.0000 C.ar    1  UNL1        0.0082
      8 C           4.2990    1.1104    0.0000 C.ar    1  UNL1        0.0580
      9 C           4.7061   -1.4659    0.0000 C.ar    1  UNL1        0.0702
     10 C           6.4643   -0.3716    0.0000 C.ar    1  UNL1       -0.0357
     11 C           3.0320   -0.2496    0.0000 C.ar    1  UNL1        0.3032
     12 C           3.7578   -1.8969    0.0000 C.ar    1  UNL1        0.0161
     13 C           6.4651   -1.3792    0.0000 C.ar    1  UNL1        0.0055
     14 C           5.8336    2.0043    0.0000 C.ar    1  UNL1       -0.0520
     15 C           3.7643    2.0043    0.0000 C.ar    1  UNL1       -0.0371
     16 C           2.9151   -1.2847    0.0000 C.ar    1  UNL1        0.2453
     17 C           5.6590   -2.9104    0.0000 C.3     1  UNL1        0.0119
     18 C           5.3198    2.9104    0.0000 C.ar    1  UNL1       -0.0611
     19 C           4.2782    2.9104    0.0000 C.ar    1  UNL1       -0.0598
     20 H           7.0059   -0.0699    0.0000 H       1  UNL1        0.0639
     21 H           3.6954   -2.5138    0.0000 H       1  UNL1        0.0679
     22 H           7.0072   -1.6800    0.0000 H       1  UNL1        0.0809
     23 H           6.4536    1.9972    0.0000 H       1  UNL1        0.0624
     24 H           3.1444    1.9972    0.0000 H       1  UNL1        0.0638
     25 H           5.0397   -2.9409    0.0000 H       1  UNL1        0.0456
     26 H           5.6895   -3.5296    0.0000 H       1  UNL1        0.0456
     27 H           6.2782   -2.8799    0.0000 H       1  UNL1        0.0456
     28 H           5.6319    3.4461    0.0000 H       1  UNL1        0.0618
     29 H           3.9661    3.4461    0.0000 H       1  UNL1        0.0618
@<TRIPOS>BOND
     1     1    11    2
     2     2    16    2
     3     3     5   ar
     4     3     8   ar
     5     3    11   ar
     6     4     9   ar
     7     4    13   ar
     8     4    17    1
     9     5     6   ar
    10     5     9    1
    11     6     7   ar
    12     6    10   ar
    13     7     8   ar
    14     7    14   ar
    15     8    15   ar
    16     9    12   ar
    17    10    13   ar
    18    10    20    1
    19    11    16   ar
    20    12    16   ar
    21    12    21    1
    22    13    22    1
    23    14    18   ar
    24    14    23    1
    25    15    19   ar
    26    15    24    1
    27    17    25    1
    28    17    26    1
    29    17    27    1
    30    18    19   ar
    31    18    28    1
    32    19    29    1
