@<TRIPOS>MOLECULE
IMPHY017443
 42 43 0 0 0
SMALL
GASTEIGER

@<TRIPOS>ATOM
      1 O           4.7320    0.0000    0.0000 O.3     1  UNL1       -0.3880
      2 C           3.7320    0.0000    0.0000 C.3     1  UNL1        0.0725
      3 C           3.7320    1.0000    0.0000 C.3     1  UNL1       -0.0118
      4 C           3.7320   -1.0000    0.0000 C.3     1  UNL1        0.0087
      5 C           4.5981    1.5000    0.0000 C.3     1  UNL1       -0.0476
      6 C           2.8660    1.5000    0.0000 C.3     1  UNL1       -0.0476
      7 C           4.5981   -1.5000    0.0000 C.3     1  UNL1       -0.0439
      8 C           4.5981    2.5000    0.0000 C.3     1  UNL1       -0.0527
      9 C           2.8660    2.5000    0.0000 C.3     1  UNL1       -0.0527
     10 C           2.8660   -1.5000    0.0000 C.2     1  UNL1       -0.0708
     11 C           3.7320    3.0000    0.0000 C.3     1  UNL1       -0.0530
     12 C           2.7320    0.0000    0.0000 C.3     1  UNL1       -0.0353
     13 C           4.5981   -2.5000    0.0000 C.3     1  UNL1       -0.0521
     14 C           2.8660   -2.5000    0.0000 C.3     1  UNL1       -0.0316
     15 C           3.7320   -3.0000    0.0000 C.3     1  UNL1       -0.0493
     16 C           2.0000   -1.0000    0.0000 C.2     1  UNL1       -0.0991
     17 H           4.2690    0.6900    0.0000 H       1  UNL1        0.0329
     18 H           4.2690   -0.6900    0.0000 H       1  UNL1        0.0373
     19 H           4.8101    0.9174    0.0000 H       1  UNL1        0.0269
     20 H           5.2087    1.6077    0.0000 H       1  UNL1        0.0269
     21 H           2.2554    1.6077    0.0000 H       1  UNL1        0.0269
     22 H           2.6540    0.9174    0.0000 H       1  UNL1        0.0269
     23 H           5.2087   -1.6077    0.0000 H       1  UNL1        0.0272
     24 H           4.8101   -0.9174    0.0000 H       1  UNL1        0.0272
     25 H           5.2087    2.3923    0.0000 H       1  UNL1        0.0265
     26 H           4.8101    3.0826    0.0000 H       1  UNL1        0.0265
     27 H           2.6540    3.0826    0.0000 H       1  UNL1        0.0265
     28 H           2.2554    2.3923    0.0000 H       1  UNL1        0.0265
     29 H           4.1306    3.4750    0.0000 H       1  UNL1        0.0265
     30 H           3.3335    3.4750    0.0000 H       1  UNL1        0.0265
     31 H           2.7320    0.6200    0.0000 H       1  UNL1        0.0257
     32 H           2.1120    0.0000    0.0000 H       1  UNL1        0.0257
     33 H           2.7320   -0.6200    0.0000 H       1  UNL1        0.0257
     34 H           4.8101   -3.0826    0.0000 H       1  UNL1        0.0266
     35 H           5.2087   -2.3923    0.0000 H       1  UNL1        0.0266
     36 H           2.2554   -2.3923    0.0000 H       1  UNL1        0.0310
     37 H           2.6540   -3.0826    0.0000 H       1  UNL1        0.0310
     38 H           3.3335   -3.4750    0.0000 H       1  UNL1        0.0268
     39 H           4.1306   -3.4750    0.0000 H       1  UNL1        0.0268
     40 H           5.0420    0.5369    0.0000 H       1  UNL1        0.2102
     41 H           2.0000   -0.3800    0.0000 H       1  UNL1        0.0534
     42 H           1.4631   -1.3100    0.0000 H       1  UNL1        0.0534
@<TRIPOS>BOND
     1     1     2    1
     2     1    40    1
     3     2     3    1
     4     2     4    1
     5     2    12    1
     6     3     5    1
     7     3     6    1
     8     3    17    1
     9     4     7    1
    10     4    10    1
    11     4    18    1
    12     5     8    1
    13     5    19    1
    14     5    20    1
    15     6     9    1
    16     6    21    1
    17     6    22    1
    18     7    13    1
    19     7    23    1
    20     7    24    1
    21     8    11    1
    22     8    25    1
    23     8    26    1
    24     9    11    1
    25     9    27    1
    26     9    28    1
    27    10    14    1
    28    10    16    2
    29    11    29    1
    30    11    30    1
    31    12    31    1
    32    12    32    1
    33    12    33    1
    34    13    15    1
    35    13    34    1
    36    13    35    1
    37    14    15    1
    38    14    36    1
    39    14    37    1
    40    15    38    1
    41    15    39    1
    42    16    41    1
    43    16    42    1
