@<TRIPOS>MOLECULE
IMPHY000982
 35 39 0 0 0
SMALL
GASTEIGER

@<TRIPOS>ATOM
      1 O           2.0000   -1.4520    0.0000 O.3     1  UNL1       -0.3621
      2 O           4.5988   -2.9524    0.0000 O.3     1  UNL1       -0.3603
      3 O           2.9956    1.2151    0.0000 O.3     1  UNL1       -0.4572
      4 O           6.0858   -0.2340    0.0000 O.3     1  UNL1       -0.4531
      5 O           6.0212   -1.9995    0.0000 O.2     1  UNL1       -0.2452
      6 O           2.9007    2.9889    0.0000 O.2     1  UNL1       -0.2453
      7 C           2.8665   -1.9520    0.0000 C.3     1  UNL1        0.1170
      8 C           2.8665   -0.9520    0.0000 C.3     1  UNL1        0.0992
      9 C           3.7326   -2.4520    0.0000 C.3     1  UNL1        0.1187
     10 C           4.5986   -1.9520    0.0000 C.3     1  UNL1        0.1193
     11 C           3.7326   -0.4520    0.0000 C.3     1  UNL1        0.0165
     12 C           3.7326    0.5480    0.0000 C.3     1  UNL1        0.1167
     13 C           2.3665   -0.0860    0.0000 C.3     1  UNL1       -0.0331
     14 C           4.5986    1.0480    0.0000 C.3     1  UNL1        0.0681
     15 C           4.5986   -0.9520    0.0000 C.2     1  UNL1        0.0672
     16 C           5.4646    0.5480    0.0000 C.3     1  UNL1        0.1327
     17 C           5.4646   -0.4520    0.0000 C.2     1  UNL1       -0.0307
     18 C           4.3894    2.0198    0.0000 C.2     1  UNL1        0.0399
     19 C           5.5865   -1.0990    0.0000 C.2     1  UNL1        0.3381
     20 C           3.4007    2.1229    0.0000 C.2     1  UNL1        0.3354
     21 C           5.0572    2.7641    0.0000 C.2     1  UNL1       -0.0882
     22 H           2.4417   -2.6882    0.0000 H       1  UNL1        0.0652
     23 H           3.4225   -2.9889    0.0000 H       1  UNL1        0.0653
     24 H           5.1355   -1.6420    0.0000 H       1  UNL1        0.0676
     25 H           3.9446   -1.0346    0.0000 H       1  UNL1        0.0330
     26 H           4.3431   -0.3443    0.0000 H       1  UNL1        0.0330
     27 H           2.9964    0.1230    0.0000 H       1  UNL1        0.0742
     28 H           2.9035    0.2240    0.0000 H       1  UNL1        0.0258
     29 H           2.0565    0.4510    0.0000 H       1  UNL1        0.0258
     30 H           1.8296   -0.3960    0.0000 H       1  UNL1        0.0258
     31 H           5.0236    1.7841    0.0000 H       1  UNL1        0.0427
     32 H           5.8896    1.2841    0.0000 H       1  UNL1        0.0787
     33 H           6.0016   -0.7620    0.0000 H       1  UNL1        0.0614
     34 H           5.6639    2.6363    0.0000 H       1  UNL1        0.0540
     35 H           4.8646    3.3534    0.0000 H       1  UNL1        0.0540
@<TRIPOS>BOND
     1     1     7    1
     2     1     8    1
     3     9     2    1
     4    10     2    1
     5     3    12    1
     6     3    20    1
     7     4    16    1
     8     4    19    1
     9     5    19    2
    10     6    20    2
    11     7     8    1
    12     7     9    1
    13     7    22    1
    14     8    11    1
    15     8    13    1
    16     9    10    1
    17     9    23    1
    18    10    15    1
    19    10    24    1
    20    11    12    1
    21    11    25    1
    22    11    26    1
    23    12    14    1
    24    12    27    1
    25    13    28    1
    26    13    29    1
    27    13    30    1
    28    14    16    1
    29    14    18    1
    30    14    31    1
    31    15    17    2
    32    15    19    1
    33    16    17    1
    34    16    32    1
    35    17    33    1
    36    18    20    1
    37    18    21    2
    38    21    34    1
    39    21    35    1
