@<TRIPOS>MOLECULE
IMPHY000532
 28 29 0 0 0
SMALL
GASTEIGER

@<TRIPOS>ATOM
      1 C          -6.8102    3.0000    0.0000 C.3     1  UNL1        0.4449
      2 C           1.8660    0.5000    0.0000 C.3     1  UNL1        0.2142
      3 C          -3.5050   -2.1390    0.0000 C.3     1  UNL1        0.2142
      4 C          -5.0781    2.0000    0.0000 C.3     1  UNL1        0.3468
      5 C           0.8660    0.5000    0.0000 C.3     1  UNL1        0.1835
      6 C          -3.7638   -1.1730    0.0000 C.3     1  UNL1        0.1834
      7 C           0.8660    1.5000    0.0000 C.3     1  UNL1        0.2144
      8 C          -2.7979   -0.9142    0.0000 C.3     1  UNL1        0.2113
      9 C           0.0000    2.0000    0.0000 C.3     1  UNL1        0.2198
     10 C          -0.8660    1.5000    0.0000 C.3     1  UNL1        0.2406
     11 C          -3.2462    0.7588    0.0000 C.3     1  UNL1        0.2375
     12 C          -2.5391    0.0517    0.0000 C.3     1  UNL1        0.1858
     13 C          -4.2121    0.5000    0.0000 C.3     1  UNL1        0.2710
     14 C          -0.8660    0.5000    0.0000 C.3     1  UNL1        0.2695
     15 N          -5.0781    3.0000    0.0000 N.2     1  UNL1        0.0186
     16 N          -5.9441    3.5000    0.0000 N.3     1  UNL1       -0.0610
     17 O           2.3660    1.3660    0.0000 O.3     1  UNL1       -0.2176
     18 O          -4.2121   -2.8461    0.0000 O.3     1  UNL1       -0.2176
     19 O           1.3660    2.3660    0.0000 O.3     1  UNL1       -0.2176
     20 O          -1.8320   -1.1730    0.0000 O.3     1  UNL1       -0.2177
     21 O          -0.5000    2.8660    0.0000 O.3     1  UNL1       -0.2174
     22 O          -1.8660    1.5000    0.0000 O.3     1  UNL1       -0.2149
     23 O          -3.5050    1.7247    0.0000 O.3     1  UNL1       -0.2150
     24 O          -5.9441    4.5000    0.0000 O.co2   1  UNL1       -0.6002
     25 O          -4.2121    1.5000    0.0000 O.3     1  UNL1       -0.2998
     26 O          -4.4709   -0.4659    0.0000 O.3     1  UNL1       -0.3256
     27 O           0.0000    0.0000    0.0000 O.3     1  UNL1       -0.3256
     28 O          -1.8320    0.7588    0.0000 O.3     1  UNL1       -0.3255
@<TRIPOS>UNITY_ATOM_ATTR
16 1
charge 1
24 1
charge -1
@<TRIPOS>BOND
     1     1    16    1
     2     2     5    1
     3     2    17    1
     4     3     6    1
     5     3    18    1
     6     4    15    1
     7     4    25    1
     8     5     7    1
     9     5    27    1
    10     6     8    1
    11     6    26    1
    12     7     9    1
    13     7    19    1
    14     8    12    1
    15     8    20    1
    16     9    10    1
    17     9    21    1
    18    10    14    1
    19    10    22    1
    20    11    12    1
    21    11    13    1
    22    11    23    1
    23    12    28    1
    24    13    25    1
    25    13    26    1
    26    14    27    1
    27    14    28    1
    28    15    16    2
    29    16    24    1
