@<TRIPOS>MOLECULE
IMPHY016681
 81 80 0 0 0
SMALL
GASTEIGER

@<TRIPOS>ATOM
      1 O          18.1254    0.2500    0.0000 O.3     1  UNL1       -0.3775
      2 O          15.5273   -0.2500    0.0000 O.3     1  UNL1       -0.3752
      3 O          12.9292    0.2500    0.0000 O.3     1  UNL1       -0.3752
      4 O          10.3312   -0.2500    0.0000 O.3     1  UNL1       -0.3752
      5 O           7.7331    0.2500    0.0000 O.3     1  UNL1       -0.3752
      6 O           5.1350   -0.2500    0.0000 O.3     1  UNL1       -0.3752
      7 O           2.5369    0.2500    0.0000 O.3     1  UNL1       -0.3927
      8 C          23.3215    0.2500    0.0000 C.3     1  UNL1       -0.0531
      9 C          24.1876   -0.2500    0.0000 C.3     1  UNL1       -0.0531
     10 C          22.4555   -0.2500    0.0000 C.3     1  UNL1       -0.0531
     11 C          25.0536    0.2500    0.0000 C.3     1  UNL1       -0.0531
     12 C          21.5895    0.2500    0.0000 C.3     1  UNL1       -0.0530
     13 C          25.9196   -0.2500    0.0000 C.3     1  UNL1       -0.0531
     14 C          20.7235   -0.2500    0.0000 C.3     1  UNL1       -0.0510
     15 C          26.7856    0.2500    0.0000 C.3     1  UNL1       -0.0533
     16 C          19.8574    0.2500    0.0000 C.3     1  UNL1       -0.0295
     17 C          27.6517   -0.2500    0.0000 C.3     1  UNL1       -0.0559
     18 C          18.9914   -0.2500    0.0000 C.3     1  UNL1        0.0478
     19 C          28.5177    0.2500    0.0000 C.3     1  UNL1       -0.0653
     20 C          17.2594   -0.2500    0.0000 C.3     1  UNL1        0.0710
     21 C          16.3933    0.2500    0.0000 C.3     1  UNL1        0.0711
     22 C          14.6613    0.2500    0.0000 C.3     1  UNL1        0.0711
     23 C          13.7953   -0.2500    0.0000 C.3     1  UNL1        0.0711
     24 C          12.0632   -0.2500    0.0000 C.3     1  UNL1        0.0711
     25 C          11.1972    0.2500    0.0000 C.3     1  UNL1        0.0711
     26 C           9.4651    0.2500    0.0000 C.3     1  UNL1        0.0711
     27 C           8.5991   -0.2500    0.0000 C.3     1  UNL1        0.0711
     28 C           6.8671   -0.2500    0.0000 C.3     1  UNL1        0.0711
     29 C           6.0010    0.2500    0.0000 C.3     1  UNL1        0.0711
     30 C           4.2690    0.2500    0.0000 C.3     1  UNL1        0.0708
     31 C           3.4030   -0.2500    0.0000 C.3     1  UNL1        0.0676
     32 H          23.7201    0.7249    0.0000 H       1  UNL1        0.0265
     33 H          22.9230    0.7249    0.0000 H       1  UNL1        0.0265
     34 H          23.7890   -0.7249    0.0000 H       1  UNL1        0.0265
     35 H          24.5861   -0.7249    0.0000 H       1  UNL1        0.0265
     36 H          22.0570   -0.7249    0.0000 H       1  UNL1        0.0265
     37 H          22.8540   -0.7249    0.0000 H       1  UNL1        0.0265
     38 H          25.4521    0.7249    0.0000 H       1  UNL1        0.0265
     39 H          24.6551    0.7249    0.0000 H       1  UNL1        0.0265
     40 H          21.9880    0.7249    0.0000 H       1  UNL1        0.0265
     41 H          21.1910    0.7249    0.0000 H       1  UNL1        0.0265
     42 H          25.5211   -0.7249    0.0000 H       1  UNL1        0.0265
     43 H          26.3182   -0.7249    0.0000 H       1  UNL1        0.0265
     44 H          20.3249   -0.7249    0.0000 H       1  UNL1        0.0266
     45 H          21.1220   -0.7249    0.0000 H       1  UNL1        0.0266
     46 H          27.1842    0.7249    0.0000 H       1  UNL1        0.0265
     47 H          26.3871    0.7249    0.0000 H       1  UNL1        0.0265
     48 H          20.2560    0.7249    0.0000 H       1  UNL1        0.0287
     49 H          19.4589    0.7249    0.0000 H       1  UNL1        0.0287
     50 H          27.2531   -0.7249    0.0000 H       1  UNL1        0.0263
     51 H          28.0502   -0.7249    0.0000 H       1  UNL1        0.0263
     52 H          18.5929   -0.7249    0.0000 H       1  UNL1        0.0560
     53 H          19.3899   -0.7249    0.0000 H       1  UNL1        0.0560
     54 H          28.8277   -0.2869    0.0000 H       1  UNL1        0.0230
     55 H          29.0546    0.5600    0.0000 H       1  UNL1        0.0230
     56 H          28.2077    0.7869    0.0000 H       1  UNL1        0.0230
     57 H          16.8608   -0.7249    0.0000 H       1  UNL1        0.0583
     58 H          17.6579   -0.7249    0.0000 H       1  UNL1        0.0583
     59 H          16.7919    0.7249    0.0000 H       1  UNL1        0.0583
     60 H          15.9948    0.7249    0.0000 H       1  UNL1        0.0583
     61 H          15.0598    0.7249    0.0000 H       1  UNL1        0.0583
     62 H          14.2628    0.7249    0.0000 H       1  UNL1        0.0583
     63 H          13.3967   -0.7249    0.0000 H       1  UNL1        0.0583
     64 H          14.1938   -0.7249    0.0000 H       1  UNL1        0.0583
     65 H          11.6647   -0.7249    0.0000 H       1  UNL1        0.0583
     66 H          12.4617   -0.7249    0.0000 H       1  UNL1        0.0583
     67 H          11.5957    0.7249    0.0000 H       1  UNL1        0.0583
     68 H          10.7987    0.7249    0.0000 H       1  UNL1        0.0583
     69 H           9.8637    0.7249    0.0000 H       1  UNL1        0.0583
     70 H           9.0666    0.7249    0.0000 H       1  UNL1        0.0583
     71 H           8.2006   -0.7249    0.0000 H       1  UNL1        0.0583
     72 H           8.9976   -0.7249    0.0000 H       1  UNL1        0.0583
     73 H           6.4685   -0.7249    0.0000 H       1  UNL1        0.0583
     74 H           7.2656   -0.7249    0.0000 H       1  UNL1        0.0583
     75 H           6.3996    0.7249    0.0000 H       1  UNL1        0.0583
     76 H           5.6025    0.7249    0.0000 H       1  UNL1        0.0583
     77 H           4.6675    0.7249    0.0000 H       1  UNL1        0.0583
     78 H           3.8705    0.7249    0.0000 H       1  UNL1        0.0583
     79 H           3.0044   -0.7249    0.0000 H       1  UNL1        0.0580
     80 H           3.8015   -0.7249    0.0000 H       1  UNL1        0.0580
     81 H           2.0000   -0.0600    0.0000 H       1  UNL1        0.2095
@<TRIPOS>BOND
     1     1    18    1
     2     1    20    1
     3     2    21    1
     4     2    22    1
     5     3    23    1
     6     3    24    1
     7     4    25    1
     8     4    26    1
     9     5    27    1
    10     5    28    1
    11     6    29    1
    12     6    30    1
    13     7    31    1
    14     7    81    1
    15     8     9    1
    16     8    10    1
    17     8    32    1
    18     8    33    1
    19     9    11    1
    20     9    34    1
    21     9    35    1
    22    10    12    1
    23    10    36    1
    24    10    37    1
    25    11    13    1
    26    11    38    1
    27    11    39    1
    28    12    14    1
    29    12    40    1
    30    12    41    1
    31    13    15    1
    32    13    42    1
    33    13    43    1
    34    14    16    1
    35    14    44    1
    36    14    45    1
    37    15    17    1
    38    15    46    1
    39    15    47    1
    40    16    18    1
    41    16    48    1
    42    16    49    1
    43    17    19    1
    44    17    50    1
    45    17    51    1
    46    18    52    1
    47    18    53    1
    48    19    54    1
    49    19    55    1
    50    19    56    1
    51    20    21    1
    52    20    57    1
    53    20    58    1
    54    21    59    1
    55    21    60    1
    56    22    23    1
    57    22    61    1
    58    22    62    1
    59    23    63    1
    60    23    64    1
    61    24    25    1
    62    24    65    1
    63    24    66    1
    64    25    67    1
    65    25    68    1
    66    26    27    1
    67    26    69    1
    68    26    70    1
    69    27    71    1
    70    27    72    1
    71    28    29    1
    72    28    73    1
    73    28    74    1
    74    29    75    1
    75    29    76    1
    76    30    31    1
    77    30    77    1
    78    30    78    1
    79    31    79    1
    80    31    80    1
