@<TRIPOS>MOLECULE
IMPHY015758
 52 52 0 0 0
SMALL
GASTEIGER

@<TRIPOS>ATOM
      1 C           5.0000    1.2990    0.0000 C.3     1  UNL1       -0.0200
      2 C           5.5000    2.1651    0.0000 C.3     1  UNL1       -0.0404
      3 C           5.5000    0.4330    0.0000 C.3     1  UNL1       -0.0428
      4 C           6.5000    0.4330    0.0000 C.3     1  UNL1       -0.0315
      5 C           4.0000    1.2990    0.0000 C.2     1  UNL1       -0.0804
      6 C           5.0000    3.0311    0.0000 C.3     1  UNL1       -0.0621
      7 C           6.5000    2.1651    0.0000 C.3     1  UNL1       -0.0621
      8 C           7.0000   -0.4330    0.0000 C.2     1  UNL1       -0.0765
      9 C           3.5000    0.4330    0.0000 C.2     1  UNL1       -0.0628
     10 C           6.5000   -1.2990    0.0000 C.2     1  UNL1       -0.0847
     11 C           5.5000   -1.2990    0.0000 C.3     1  UNL1       -0.0308
     12 C           5.0000   -2.1651    0.0000 C.3     1  UNL1       -0.0286
     13 C           8.0000   -0.4330    0.0000 C.3     1  UNL1       -0.0438
     14 C           2.5000    0.4330    0.0000 C.2     1  UNL1       -0.0544
     15 C           2.0000   -0.4330    0.0000 C.3     1  UNL1       -0.0248
     16 C           2.5000   -1.2990    0.0000 C.3     1  UNL1       -0.0305
     17 C           4.0000   -2.1651    0.0000 C.2     1  UNL1       -0.0762
     18 C           3.5000   -1.2990    0.0000 C.2     1  UNL1       -0.0847
     19 C           3.5000   -3.0311    0.0000 C.3     1  UNL1       -0.0438
     20 C           2.0000    1.2990    0.0000 C.2     1  UNL1       -0.0955
     21 H           5.6200    1.2990    0.0000 H       1  UNL1        0.0346
     22 H           5.8100    2.7020    0.0000 H       1  UNL1        0.0301
     23 H           4.9174    0.2210    0.0000 H       1  UNL1        0.0274
     24 H           5.6077   -0.1776    0.0000 H       1  UNL1        0.0274
     25 H           7.0826    0.6451    0.0000 H       1  UNL1        0.0310
     26 H           6.3923    1.0436    0.0000 H       1  UNL1        0.0310
     27 H           3.6900    1.8360    0.0000 H       1  UNL1        0.0575
     28 H           5.5369    3.3411    0.0000 H       1  UNL1        0.0233
     29 H           4.6900    3.5680    0.0000 H       1  UNL1        0.0233
     30 H           4.4631    2.7211    0.0000 H       1  UNL1        0.0233
     31 H           6.5000    1.5451    0.0000 H       1  UNL1        0.0233
     32 H           7.1200    2.1651    0.0000 H       1  UNL1        0.0233
     33 H           6.5000    2.7851    0.0000 H       1  UNL1        0.0233
     34 H           3.8100   -0.1039    0.0000 H       1  UNL1        0.0617
     35 H           6.8100   -1.8360    0.0000 H       1  UNL1        0.0572
     36 H           5.6077   -0.6885    0.0000 H       1  UNL1        0.0310
     37 H           4.9174   -1.0870    0.0000 H       1  UNL1        0.0310
     38 H           4.8923   -2.7756    0.0000 H       1  UNL1        0.0313
     39 H           5.5826   -2.3771    0.0000 H       1  UNL1        0.0313
     40 H           8.0000   -1.0530    0.0000 H       1  UNL1        0.0274
     41 H           8.6200   -0.4330    0.0000 H       1  UNL1        0.0274
     42 H           8.0000    0.1870    0.0000 H       1  UNL1        0.0274
     43 H           1.5250   -0.0345    0.0000 H       1  UNL1        0.0316
     44 H           1.5250   -0.8315    0.0000 H       1  UNL1        0.0316
     45 H           1.9174   -1.5111    0.0000 H       1  UNL1        0.0311
     46 H           2.6077   -1.9096    0.0000 H       1  UNL1        0.0311
     47 H           3.8100   -0.7621    0.0000 H       1  UNL1        0.0572
     48 H           2.9631   -2.7211    0.0000 H       1  UNL1        0.0274
     49 H           3.1900   -3.5680    0.0000 H       1  UNL1        0.0274
     50 H           4.0369   -3.3411    0.0000 H       1  UNL1        0.0274
     51 H           2.3100    1.8360    0.0000 H       1  UNL1        0.0537
     52 H           1.3800    1.2990    0.0000 H       1  UNL1        0.0537
@<TRIPOS>BOND
     1     1     2    1
     2     1     3    1
     3     1     5    1
     4     1    21    1
     5     2     6    1
     6     2     7    1
     7     2    22    1
     8     3     4    1
     9     3    23    1
    10     3    24    1
    11     4     8    1
    12     4    25    1
    13     4    26    1
    14     5     9    2
    15     5    27    1
    16     6    28    1
    17     6    29    1
    18     6    30    1
    19     7    31    1
    20     7    32    1
    21     7    33    1
    22     8    10    2
    23     8    13    1
    24     9    14    1
    25     9    34    1
    26    10    11    1
    27    10    35    1
    28    11    12    1
    29    11    36    1
    30    11    37    1
    31    12    17    1
    32    12    38    1
    33    12    39    1
    34    13    40    1
    35    13    41    1
    36    13    42    1
    37    14    15    1
    38    14    20    2
    39    15    16    1
    40    15    43    1
    41    15    44    1
    42    16    18    1
    43    16    45    1
    44    16    46    1
    45    17    18    2
    46    17    19    1
    47    18    47    1
    48    19    48    1
    49    19    49    1
    50    19    50    1
    51    20    51    1
    52    20    52    1
