@<TRIPOS>MOLECULE
IMPHY004930
 113 117 0 0 0
SMALL
GASTEIGER

@<TRIPOS>ATOM
      1 O           9.4304   -0.6855    0.0000 O.3     1  UNL1       -0.3906
      2 O          14.1405    5.2917    0.0000 O.3     1  UNL1       -0.3912
      3 O           5.1396    0.0950    0.0000 O.3     1  UNL1       -0.4575
      4 O           7.0050   -0.8944    0.0000 O.3     1  UNL1       -0.4802
      5 O           8.2096   -1.3434    0.0000 O.2     1  UNL1       -0.2503
      6 O           5.9998   -1.4084    0.0000 O.2     1  UNL1       -0.2452
      7 O           2.5357   -1.3950    0.0000 O.3     1  UNL1       -0.3902
      8 O           6.8523   -4.9117    0.0000 O.3     1  UNL1       -0.3728
      9 C          10.5327    2.1473    0.0000 C.3     1  UNL1       -0.0193
     10 C          10.5327    3.1473    0.0000 C.3     1  UNL1       -0.0257
     11 C          11.4266    3.6820    0.0000 C.3     1  UNL1       -0.0250
     12 C           9.6666    1.6473    0.0000 C.3     1  UNL1       -0.0028
     13 C          12.3327    3.1681    0.0000 C.3     1  UNL1       -0.0278
     14 C          11.4266    1.6126    0.0000 C.3     1  UNL1       -0.0463
     15 C           8.8006    2.1473    0.0000 C.2     1  UNL1       -0.0627
     16 C          12.3327    2.1265    0.0000 C.3     1  UNL1       -0.0486
     17 C          13.2765    3.7034    0.0000 C.3     1  UNL1       -0.0056
     18 C           7.8906    1.6404    0.0000 C.3     1  UNL1       -0.0005
     19 C           9.6827    0.6058    0.0000 C.3     1  UNL1       -0.0162
     20 C           9.6666    3.6473    0.0000 C.3     1  UNL1       -0.0306
     21 C           7.8826    0.5988    0.0000 C.3     1  UNL1        0.1031
     22 C          11.4015    4.7667    0.0000 C.3     1  UNL1       -0.0447
     23 C           8.7847    0.0780    0.0000 C.3     1  UNL1        0.0724
     24 C          10.8748    1.2076    0.0000 C.3     1  UNL1       -0.0585
     25 C           8.8006    3.1473    0.0000 C.2     1  UNL1       -0.0836
     26 C          13.2765    4.7883    0.0000 C.3     1  UNL1        0.0606
     27 C          10.5567    4.1753    0.0000 C.3     1  UNL1       -0.0590
     28 C          12.3327    5.3236    0.0000 C.3     1  UNL1       -0.0258
     29 C          10.3094    0.8812    0.0000 C.3     1  UNL1       -0.0552
     30 C           6.9638    2.2045    0.0000 C.3     1  UNL1       -0.0368
     31 C           6.9472    0.0491    0.0000 C.3     1  UNL1        0.0036
     32 C           6.0159    1.6766    0.0000 C.3     1  UNL1        0.0028
     33 C           6.0075    0.5916    0.0000 C.3     1  UNL1        0.1096
     34 C          14.2764    3.6995    0.0000 C.3     1  UNL1       -0.0572
     35 C          13.7731    2.8354    0.0000 C.3     1  UNL1       -0.0572
     36 C           7.8749   -0.4011    0.0000 C.2     1  UNL1        0.3141
     37 C           5.0160    1.6882    0.0000 C.3     1  UNL1       -0.0564
     38 C           5.5259    2.5483    0.0000 C.3     1  UNL1       -0.0564
     39 C           5.1357   -0.9050    0.0000 C.2     1  UNL1        0.3373
     40 C           4.2678   -1.4017    0.0000 C.2     1  UNL1        0.0578
     41 C           3.4037   -0.8984    0.0000 C.3     1  UNL1        0.0757
     42 C           4.2639   -2.4017    0.0000 C.2     1  UNL1       -0.0717
     43 C           5.1280   -2.9050    0.0000 C.3     1  UNL1       -0.0310
     44 C           5.1242   -3.9050    0.0000 C.3     1  UNL1       -0.0170
     45 C           5.9882   -4.4083    0.0000 C.3     1  UNL1        0.0845
     46 C           6.4916   -3.5442    0.0000 C.3     1  UNL1       -0.0322
     47 C           5.4849   -5.2724    0.0000 C.2     1  UNL1       -0.0600
     48 C           6.8485   -5.9117    0.0000 C.3     1  UNL1        0.0376
     49 C           4.4849   -5.2686    0.0000 C.2     1  UNL1       -0.1000
     50 H          11.0720    2.8414    0.0000 H       1  UNL1        0.0315
     51 H          12.8684    2.8560    0.0000 H       1  UNL1        0.0312
     52 H          11.0220    1.1428    0.0000 H       1  UNL1        0.0271
     53 H          11.8202    1.1336    0.0000 H       1  UNL1        0.0271
     54 H          12.5417    1.5428    0.0000 H       1  UNL1        0.0268
     55 H          12.9435    2.2326    0.0000 H       1  UNL1        0.0268
     56 H           7.9026    2.2603    0.0000 H       1  UNL1        0.0357
     57 H           9.9007    0.0254    0.0000 H       1  UNL1        0.0299
     58 H          10.2918    0.7213    0.0000 H       1  UNL1        0.0299
     59 H          10.0652    4.1222    0.0000 H       1  UNL1        0.0310
     60 H           9.2681    4.1222    0.0000 H       1  UNL1        0.0310
     61 H          11.1790    5.3454    0.0000 H       1  UNL1        0.0271
     62 H          10.7933    4.6465    0.0000 H       1  UNL1        0.0271
     63 H           8.3870   -0.3977    0.0000 H       1  UNL1        0.0605
     64 H          10.2922    0.9955    0.0000 H       1  UNL1        0.0235
     65 H          11.0869    0.6250    0.0000 H       1  UNL1        0.0235
     66 H          11.4574    1.4198    0.0000 H       1  UNL1        0.0235
     67 H           8.2637    3.4573    0.0000 H       1  UNL1        0.0572
     68 H          13.2729    5.4083    0.0000 H       1  UNL1        0.0599
     69 H          10.8626    4.7146    0.0000 H       1  UNL1        0.0235
     70 H          10.0174    4.4811    0.0000 H       1  UNL1        0.0235
     71 H          10.2509    3.6360    0.0000 H       1  UNL1        0.0235
     72 H          12.7263    5.8026    0.0000 H       1  UNL1        0.0290
     73 H          11.9281    5.7934    0.0000 H       1  UNL1        0.0290
     74 H           9.8345    0.4827    0.0000 H       1  UNL1        0.0238
     75 H          10.7079    0.4063    0.0000 H       1  UNL1        0.0238
     76 H          10.7844    1.2798    0.0000 H       1  UNL1        0.0238
     77 H           7.3720    2.6712    0.0000 H       1  UNL1        0.0278
     78 H           6.5738    2.6866    0.0000 H       1  UNL1        0.0278
     79 H           6.5498   -0.4268    0.0000 H       1  UNL1        0.0313
     80 H           7.3481   -0.4238    0.0000 H       1  UNL1        0.0313
     81 H           6.0063   -0.0284    0.0000 H       1  UNL1        0.0739
     82 H          14.2741    3.0795    0.0000 H       1  UNL1        0.0236
     83 H          14.8964    3.6971    0.0000 H       1  UNL1        0.0236
     84 H          14.2788    4.3195    0.0000 H       1  UNL1        0.0236
     85 H          13.2350    2.5275    0.0000 H       1  UNL1        0.0236
     86 H          14.0810    2.2973    0.0000 H       1  UNL1        0.0236
     87 H          14.3112    3.1433    0.0000 H       1  UNL1        0.0236
     88 H          10.0406   -0.5755    0.0000 H       1  UNL1        0.2098
     89 H           6.0664    2.8521    0.0000 H       1  UNL1        0.0236
     90 H           5.2222    3.0888    0.0000 H       1  UNL1        0.0236
     91 H           4.9854    2.2446    0.0000 H       1  UNL1        0.0236
     92 H           5.0231    2.3081    0.0000 H       1  UNL1        0.0236
     93 H           4.3960    1.6953    0.0000 H       1  UNL1        0.0236
     94 H           5.0088    1.0682    0.0000 H       1  UNL1        0.0236
     95 H          14.1382    5.9117    0.0000 H       1  UNL1        0.2098
     96 H           7.0002   -1.5144    0.0000 H       1  UNL1        0.2951
     97 H           3.8040   -0.4249    0.0000 H       1  UNL1        0.0609
     98 H           3.0070   -0.4219    0.0000 H       1  UNL1        0.0609
     99 H           3.7258   -2.7096    0.0000 H       1  UNL1        0.0578
    100 H           5.7382   -3.0150    0.0000 H       1  UNL1        0.0309
    101 H           5.3423   -2.3232    0.0000 H       1  UNL1        0.0309
    102 H           2.0000   -1.0830    0.0000 H       1  UNL1        0.2099
    103 H           4.5140   -3.7950    0.0000 H       1  UNL1        0.0299
    104 H           4.9099   -4.4868    0.0000 H       1  UNL1        0.0299
    105 H           7.0273   -3.8563    0.0000 H       1  UNL1        0.0260
    106 H           6.8036   -3.0085    0.0000 H       1  UNL1        0.0260
    107 H           5.9558   -3.2322    0.0000 H       1  UNL1        0.0260
    108 H           5.7928   -5.8106    0.0000 H       1  UNL1        0.0594
    109 H           6.2285   -5.9093    0.0000 H       1  UNL1        0.0524
    110 H           6.8461   -6.5317    0.0000 H       1  UNL1        0.0524
    111 H           7.4685   -5.9141    0.0000 H       1  UNL1        0.0524
    112 H           4.1770   -4.7304    0.0000 H       1  UNL1        0.0533
    113 H           4.1729   -5.8043    0.0000 H       1  UNL1        0.0533
@<TRIPOS>BOND
     1     1    23    1
     2     1    88    1
     3     2    26    1
     4     2    95    1
     5     3    33    1
     6     3    39    1
     7     4    36    1
     8     4    96    1
     9     5    36    2
    10     6    39    2
    11     7    41    1
    12     7   102    1
    13     8    45    1
    14     8    48    1
    15     9    10    1
    16     9    12    1
    17     9    14    1
    18     9    24    1
    19    10    11    1
    20    10    20    1
    21    10    50    1
    22    11    13    1
    23    11    22    1
    24    11    27    1
    25    12    15    1
    26    12    19    1
    27    12    29    1
    28    13    16    1
    29    13    17    1
    30    13    51    1
    31    14    16    1
    32    14    52    1
    33    14    53    1
    34    15    18    1
    35    15    25    2
    36    16    54    1
    37    16    55    1
    38    17    26    1
    39    17    34    1
    40    17    35    1
    41    18    21    1
    42    18    30    1
    43    18    56    1
    44    19    23    1
    45    19    57    1
    46    19    58    1
    47    20    25    1
    48    20    59    1
    49    20    60    1
    50    21    23    1
    51    21    31    1
    52    21    36    1
    53    22    28    1
    54    22    61    1
    55    22    62    1
    56    23    63    1
    57    24    64    1
    58    24    65    1
    59    24    66    1
    60    25    67    1
    61    26    28    1
    62    26    68    1
    63    27    69    1
    64    27    70    1
    65    27    71    1
    66    28    72    1
    67    28    73    1
    68    29    74    1
    69    29    75    1
    70    29    76    1
    71    30    32    1
    72    30    77    1
    73    30    78    1
    74    31    33    1
    75    31    79    1
    76    31    80    1
    77    32    33    1
    78    32    37    1
    79    32    38    1
    80    33    81    1
    81    34    82    1
    82    34    83    1
    83    34    84    1
    84    35    85    1
    85    35    86    1
    86    35    87    1
    87    37    92    1
    88    37    93    1
    89    37    94    1
    90    38    89    1
    91    38    90    1
    92    38    91    1
    93    39    40    1
    94    40    41    1
    95    40    42    2
    96    41    97    1
    97    41    98    1
    98    42    43    1
    99    42    99    1
   100    43    44    1
   101    43   100    1
   102    43   101    1
   103    44    45    1
   104    44   103    1
   105    44   104    1
   106    45    46    1
   107    45    47    1
   108    46   105    1
   109    46   106    1
   110    46   107    1
   111    47    49    2
   112    47   108    1
   113    48   109    1
   114    48   110    1
   115    48   111    1
   116    49   112    1
   117    49   113    1
