@<TRIPOS>MOLECULE
IMPHY005837
 21 21 0 0 0
SMALL
GASTEIGER

@<TRIPOS>ATOM
      1 O           4.5411   -1.0684    0.0000 O.2     1  UNL1       -0.4628
      2 O           4.5981    2.0194    0.0000 O.2     1  UNL1       -0.2956
      3 C           2.8660    1.0194    0.0000 C.2     1  UNL1       -0.0620
      4 C           3.7320    0.5194    0.0000 C.2     1  UNL1        0.0551
      5 C           3.7320   -0.4806    0.0000 C.ar    1  UNL1        0.1378
      6 C           2.8660    2.0194    0.0000 C.3     1  UNL1       -0.0430
      7 C           2.0000    0.5194    0.0000 C.3     1  UNL1       -0.0430
      8 C           2.9230   -1.0684    0.0000 C.ar    1  UNL1       -0.0158
      9 C           3.2320   -2.0194    0.0000 C.ar    1  UNL1       -0.0233
     10 C           4.5981    1.0194    0.0000 C.2     1  UNL1        0.1537
     11 C           4.2320   -2.0194    0.0000 C.ar    1  UNL1        0.0926
     12 H           3.4860    2.0194    0.0000 H       1  UNL1        0.0275
     13 H           2.8660    2.6394    0.0000 H       1  UNL1        0.0275
     14 H           2.2460    2.0194    0.0000 H       1  UNL1        0.0275
     15 H           1.6900    1.0564    0.0000 H       1  UNL1        0.0275
     16 H           1.4631    0.2094    0.0000 H       1  UNL1        0.0275
     17 H           2.3100   -0.0175    0.0000 H       1  UNL1        0.0275
     18 H           2.3334   -0.8768    0.0000 H       1  UNL1        0.0655
     19 H           2.8676   -2.5210    0.0000 H       1  UNL1        0.0649
     20 H           5.1350    0.7094    0.0000 H       1  UNL1        0.1083
     21 H           4.5965   -2.5210    0.0000 H       1  UNL1        0.1029
@<TRIPOS>BOND
     1     1     5   ar
     2     1    11   ar
     3     2    10    2
     4     3     4    2
     5     3     6    1
     6     3     7    1
     7     4     5    1
     8     4    10    1
     9     5     8   ar
    10     6    12    1
    11     6    13    1
    12     6    14    1
    13     7    15    1
    14     7    16    1
    15     7    17    1
    16     8     9   ar
    17     8    18    1
    18     9    11   ar
    19     9    19    1
    20    10    20    1
    21    11    21    1
