@<TRIPOS>MOLECULE
IMPHY005317
 42 43 0 0 0
SMALL
GASTEIGER

@<TRIPOS>ATOM
      1 O           8.9282    2.5000    0.0000 O.3     1  UNL1       -0.4951
      2 O           2.0000   -3.5000    0.0000 O.3     1  UNL1       -0.4951
      3 O           3.7320    1.5000    0.0000 O.2     1  UNL1       -0.2528
      4 N           5.4641    1.5000    0.0000 N.am    1  UNL1       -0.2953
      5 N           4.5981    0.0000    0.0000 N.am    1  UNL1       -0.2953
      6 C           5.4641    2.5000    0.0000 C.3     1  UNL1        0.0384
      7 C           3.7320   -0.5000    0.0000 C.3     1  UNL1        0.0384
      8 C           3.7320   -1.5000    0.0000 C.ar    1  UNL1       -0.0268
      9 C           6.3301    3.0000    0.0000 C.ar    1  UNL1       -0.0268
     10 C           2.8660   -2.0000    0.0000 C.ar    1  UNL1       -0.0153
     11 C           7.1962    2.5000    0.0000 C.ar    1  UNL1       -0.0153
     12 C           4.5981    1.0000    0.0000 C.2     1  UNL1        0.3002
     13 C           6.3301    4.0000    0.0000 C.ar    1  UNL1       -0.0569
     14 C           4.5981   -2.0000    0.0000 C.ar    1  UNL1       -0.0569
     15 C           2.8660   -3.0000    0.0000 C.ar    1  UNL1        0.1204
     16 C           8.0622    3.0000    0.0000 C.ar    1  UNL1        0.1204
     17 C           7.1962    4.5000    0.0000 C.ar    1  UNL1       -0.0580
     18 C           4.5981   -3.0000    0.0000 C.ar    1  UNL1       -0.0580
     19 C           3.7320   -3.5000    0.0000 C.ar    1  UNL1       -0.0199
     20 C           8.0622    4.0000    0.0000 C.ar    1  UNL1       -0.0199
     21 C           2.0000   -4.5000    0.0000 C.3     1  UNL1        0.0788
     22 C           9.7942    3.0000    0.0000 C.3     1  UNL1        0.0788
     23 H           5.2520    3.0826    0.0000 H       1  UNL1        0.0512
     24 H           4.8535    2.3923    0.0000 H       1  UNL1        0.0512
     25 H           3.5200    0.0826    0.0000 H       1  UNL1        0.0512
     26 H           3.1215   -0.6077    0.0000 H       1  UNL1        0.0512
     27 H           6.0010    1.1900    0.0000 H       1  UNL1        0.1506
     28 H           5.1350   -0.3100    0.0000 H       1  UNL1        0.1506
     29 H           2.3291   -1.6900    0.0000 H       1  UNL1        0.0657
     30 H           7.1962    1.8800    0.0000 H       1  UNL1        0.0657
     31 H           5.1350   -1.6900    0.0000 H       1  UNL1        0.0621
     32 H           5.7932    4.3100    0.0000 H       1  UNL1        0.0621
     33 H           7.1962    5.1200    0.0000 H       1  UNL1        0.0619
     34 H           5.1350   -3.3100    0.0000 H       1  UNL1        0.0619
     35 H           3.7320   -4.1200    0.0000 H       1  UNL1        0.0654
     36 H           8.5991    4.3100    0.0000 H       1  UNL1        0.0654
     37 H           1.3800   -4.5000    0.0000 H       1  UNL1        0.0660
     38 H           2.0000   -5.1200    0.0000 H       1  UNL1        0.0660
     39 H          10.1042    2.4631    0.0000 H       1  UNL1        0.0660
     40 H          10.3312    3.3100    0.0000 H       1  UNL1        0.0660
     41 H           9.4842    3.5369    0.0000 H       1  UNL1        0.0660
     42 H           2.6200   -4.5000    0.0000 H       1  UNL1        0.0660
@<TRIPOS>BOND
     1     1    16    1
     2     1    22    1
     3     2    15    1
     4     2    21    1
     5     3    12    2
     6     4     6    1
     7     4    12   am
     8     4    27    1
     9     5     7    1
    10     5    12   am
    11     5    28    1
    12     6     9    1
    13     6    23    1
    14     6    24    1
    15     7     8    1
    16     7    25    1
    17     7    26    1
    18     8    10   ar
    19     8    14   ar
    20     9    11   ar
    21     9    13   ar
    22    10    15   ar
    23    10    29    1
    24    11    16   ar
    25    11    30    1
    26    13    17   ar
    27    13    32    1
    28    14    18   ar
    29    14    31    1
    30    15    19   ar
    31    16    20   ar
    32    17    20   ar
    33    17    33    1
    34    18    19   ar
    35    18    34    1
    36    19    35    1
    37    20    36    1
    38    21    37    1
    39    21    38    1
    40    21    42    1
    41    22    39    1
    42    22    40    1
    43    22    41    1
