@<TRIPOS>MOLECULE
IMPHY001386
 53 55 0 0 0
SMALL
GASTEIGER

@<TRIPOS>ATOM
      1 O           2.3038   -2.4613    0.0000 O.3     1  UNL1       -0.3945
      2 C           4.6876   -0.0433    0.0000 C.3     1  UNL1       -0.0216
      3 C           4.6876   -1.0433    0.0000 C.3     1  UNL1       -0.0242
      4 C           3.7937   -1.5780    0.0000 C.3     1  UNL1       -0.0053
      5 C           5.5536    0.4567    0.0000 C.3     1  UNL1       -0.0102
      6 C           3.7937    0.4913    0.0000 C.3     1  UNL1       -0.0468
      7 C           2.8876   -1.0641    0.0000 C.3     1  UNL1       -0.0452
      8 C           5.5536   -1.5433    0.0000 C.3     1  UNL1       -0.0303
      9 C           2.8876   -0.0225    0.0000 C.3     1  UNL1       -0.0520
     10 C           4.6876    0.9567    0.0000 C.3     1  UNL1       -0.0587
     11 C           6.4196   -0.0433    0.0000 C.2     1  UNL1       -0.0477
     12 C           5.5376    1.4982    0.0000 C.3     1  UNL1       -0.0420
     13 C           3.3037   -2.4497    0.0000 C.3     1  UNL1        0.0499
     14 C           4.3036   -2.4382    0.0000 C.3     1  UNL1       -0.0572
     15 C           6.4196   -1.0433    0.0000 C.2     1  UNL1       -0.0802
     16 C           6.4356    2.0259    0.0000 C.3     1  UNL1       -0.0306
     17 C           7.3296    0.4635    0.0000 C.2     1  UNL1       -0.0591
     18 C           7.3377    1.5051    0.0000 C.2     1  UNL1       -0.0667
     19 C           8.2056    2.0018    0.0000 C.3     1  UNL1       -0.0253
     20 C           8.2095    3.0018    0.0000 C.3     1  UNL1       -0.0589
     21 C           9.0697    1.4984    0.0000 C.3     1  UNL1       -0.0589
     22 H           4.6941   -1.8933    0.0000 H       1  UNL1        0.0315
     23 H           6.2864    0.8873    0.0000 H       1  UNL1        0.0354
     24 H           4.1982    0.9611    0.0000 H       1  UNL1        0.0271
     25 H           3.4000    0.9704    0.0000 H       1  UNL1        0.0271
     26 H           2.2767   -0.9580    0.0000 H       1  UNL1        0.0271
     27 H           2.6785   -1.6478    0.0000 H       1  UNL1        0.0271
     28 H           5.1551   -2.0183    0.0000 H       1  UNL1        0.0311
     29 H           5.9521   -2.0183    0.0000 H       1  UNL1        0.0311
     30 H           2.6785    0.5612    0.0000 H       1  UNL1        0.0266
     31 H           2.2767   -0.1286    0.0000 H       1  UNL1        0.0266
     32 H           5.3076    0.9567    0.0000 H       1  UNL1        0.0235
     33 H           4.6876    1.5767    0.0000 H       1  UNL1        0.0235
     34 H           4.0676    0.9567    0.0000 H       1  UNL1        0.0235
     35 H           5.3195    2.0786    0.0000 H       1  UNL1        0.0274
     36 H           4.9284    1.3827    0.0000 H       1  UNL1        0.0274
     37 H           3.2031   -3.0615    0.0000 H       1  UNL1        0.0562
     38 H           3.8887   -2.6550    0.0000 H       1  UNL1        0.0562
     39 H           3.7703   -2.7544    0.0000 H       1  UNL1        0.0236
     40 H           4.6198   -2.9715    0.0000 H       1  UNL1        0.0236
     41 H           4.8370   -2.1220    0.0000 H       1  UNL1        0.0236
     42 H           6.9566   -1.3533    0.0000 H       1  UNL1        0.0575
     43 H           6.8329    2.5019    0.0000 H       1  UNL1        0.0310
     44 H           6.0346    2.4988    0.0000 H       1  UNL1        0.0310
     45 H           7.8630    0.1473    0.0000 H       1  UNL1        0.0620
     46 H           8.7438    2.3097    0.0000 H       1  UNL1        0.0340
     47 H           2.0000   -3.0018    0.0000 H       1  UNL1        0.2094
     48 H           8.7576    0.9627    0.0000 H       1  UNL1        0.0235
     49 H           9.6054    1.1864    0.0000 H       1  UNL1        0.0235
     50 H           9.3818    2.0342    0.0000 H       1  UNL1        0.0235
     51 H           8.8295    2.9994    0.0000 H       1  UNL1        0.0235
     52 H           8.2119    3.6218    0.0000 H       1  UNL1        0.0235
     53 H           7.5895    3.0042    0.0000 H       1  UNL1        0.0235
@<TRIPOS>BOND
     1     1    13    1
     2     1    47    1
     3     2     3    1
     4     2     5    1
     5     2     6    1
     6     2    10    1
     7     3     4    1
     8     3     8    1
     9     3    22    1
    10     4     7    1
    11     4    13    1
    12     4    14    1
    13     5    11    1
    14     5    12    1
    15     5    23    1
    16     6     9    1
    17     6    24    1
    18     6    25    1
    19     7     9    1
    20     7    26    1
    21     7    27    1
    22     8    15    1
    23     8    28    1
    24     8    29    1
    25     9    30    1
    26     9    31    1
    27    10    32    1
    28    10    33    1
    29    10    34    1
    30    11    15    2
    31    11    17    1
    32    12    16    1
    33    12    35    1
    34    12    36    1
    35    13    37    1
    36    13    38    1
    37    14    39    1
    38    14    40    1
    39    14    41    1
    40    15    42    1
    41    16    18    1
    42    16    43    1
    43    16    44    1
    44    17    18    2
    45    17    45    1
    46    18    19    1
    47    19    20    1
    48    19    21    1
    49    19    46    1
    50    20    51    1
    51    20    52    1
    52    20    53    1
    53    21    48    1
    54    21    49    1
    55    21    50    1
