@<TRIPOS>MOLECULE
IMPHY015649
 40 40 0 0 0
SMALL
GASTEIGER

@<TRIPOS>ATOM
      1 O           6.3301    3.7500    0.0000 O.3     1  UNL1       -0.4624
      2 O           7.1962    5.2500    0.0000 O.2     1  UNL1       -0.2546
      3 C           3.7320   -0.7500    0.0000 C.3     1  UNL1       -0.0488
      4 C           3.7320    0.2500    0.0000 C.3     1  UNL1       -0.0493
      5 C           2.8660   -1.2500    0.0000 C.3     1  UNL1       -0.0277
      6 C           4.5981    0.7500    0.0000 C.3     1  UNL1       -0.0344
      7 C           2.8660   -2.2500    0.0000 C.ar    1  UNL1       -0.0473
      8 C           4.5981    1.7500    0.0000 C.2     1  UNL1       -0.0818
      9 C           2.0000   -2.7500    0.0000 C.ar    1  UNL1       -0.0583
     10 C           3.7320   -2.7500    0.0000 C.ar    1  UNL1       -0.0583
     11 C           5.4641    2.2500    0.0000 C.2     1  UNL1       -0.0396
     12 C           2.8660   -4.2500    0.0000 C.ar    1  UNL1       -0.0504
     13 C           2.0000   -3.7500    0.0000 C.ar    1  UNL1       -0.0586
     14 C           3.7320   -3.7500    0.0000 C.ar    1  UNL1       -0.0586
     15 C           5.4641    3.2500    0.0000 C.3     1  UNL1        0.1131
     16 C           6.3301    1.7500    0.0000 C.3     1  UNL1       -0.0406
     17 C           2.8660   -5.2500    0.0000 C.3     1  UNL1       -0.0397
     18 C           6.3301    4.7500    0.0000 C.2     1  UNL1        0.2946
     19 H           3.9441   -1.3326    0.0000 H       1  UNL1        0.0268
     20 H           4.3426   -0.6423    0.0000 H       1  UNL1        0.0268
     21 H           3.5200    0.8326    0.0000 H       1  UNL1        0.0268
     22 H           3.1215    0.1423    0.0000 H       1  UNL1        0.0268
     23 H           2.6540   -0.6674    0.0000 H       1  UNL1        0.0313
     24 H           2.2554   -1.3577    0.0000 H       1  UNL1        0.0313
     25 H           4.8101    0.1674    0.0000 H       1  UNL1        0.0307
     26 H           5.2087    0.8577    0.0000 H       1  UNL1        0.0307
     27 H           4.0611    2.0600    0.0000 H       1  UNL1        0.0573
     28 H           1.4631   -2.4400    0.0000 H       1  UNL1        0.0620
     29 H           4.2690   -2.4400    0.0000 H       1  UNL1        0.0620
     30 H           1.4631   -4.0600    0.0000 H       1  UNL1        0.0620
     31 H           4.2690   -4.0600    0.0000 H       1  UNL1        0.0620
     32 H           5.2520    3.8326    0.0000 H       1  UNL1        0.0745
     33 H           4.8535    3.1423    0.0000 H       1  UNL1        0.0745
     34 H           6.0201    1.2131    0.0000 H       1  UNL1        0.0275
     35 H           6.8671    1.4400    0.0000 H       1  UNL1        0.0275
     36 H           6.6401    2.2869    0.0000 H       1  UNL1        0.0275
     37 H           2.2460   -5.2500    0.0000 H       1  UNL1        0.0278
     38 H           2.8660   -5.8700    0.0000 H       1  UNL1        0.0278
     39 H           3.4860   -5.2500    0.0000 H       1  UNL1        0.0278
     40 H           5.7932    5.0600    0.0000 H       1  UNL1        0.1512
@<TRIPOS>BOND
     1     1    15    1
     2     1    18    1
     3     2    18    2
     4     3     4    1
     5     3     5    1
     6     3    19    1
     7     3    20    1
     8     4     6    1
     9     4    21    1
    10     4    22    1
    11     5     7    1
    12     5    23    1
    13     5    24    1
    14     6     8    1
    15     6    25    1
    16     6    26    1
    17     7     9   ar
    18     7    10   ar
    19     8    11    2
    20     8    27    1
    21     9    13   ar
    22     9    28    1
    23    10    14   ar
    24    10    29    1
    25    11    15    1
    26    11    16    1
    27    12    13   ar
    28    12    14   ar
    29    12    17    1
    30    13    30    1
    31    14    31    1
    32    15    32    1
    33    15    33    1
    34    16    34    1
    35    16    35    1
    36    16    36    1
    37    17    37    1
    38    17    38    1
    39    17    39    1
    40    18    40    1
