@<TRIPOS>MOLECULE
IMPHY016459
 56 55 0 0 0
SMALL
GASTEIGER

@<TRIPOS>ATOM
      1 C           5.4641    0.2500    0.0000 C.3     1  UNL1       -0.0439
      2 C           6.3301    0.7500    0.0000 C.3     1  UNL1       -0.0505
      3 C           7.1962    0.2500    0.0000 C.3     1  UNL1       -0.0528
      4 C           8.0622    0.7500    0.0000 C.3     1  UNL1       -0.0530
      5 C           4.5981    0.7500    0.0000 C.3     1  UNL1       -0.0505
      6 C           8.9282    0.2500    0.0000 C.3     1  UNL1       -0.0531
      7 C           9.7942    0.7500    0.0000 C.3     1  UNL1       -0.0531
      8 C          10.6603    0.2500    0.0000 C.3     1  UNL1       -0.0531
      9 C           3.7320    0.2500    0.0000 C.3     1  UNL1       -0.0531
     10 C          11.5263    0.7500    0.0000 C.3     1  UNL1       -0.0531
     11 C           5.4641   -0.7500    0.0000 C.3     1  UNL1       -0.0624
     12 C          12.3923    0.2500    0.0000 C.3     1  UNL1       -0.0531
     13 C          13.2583    0.7500    0.0000 C.3     1  UNL1       -0.0531
     14 C           2.8660    0.7500    0.0000 C.3     1  UNL1       -0.0559
     15 C          14.1244    0.2500    0.0000 C.3     1  UNL1       -0.0533
     16 C          14.9904    0.7500    0.0000 C.3     1  UNL1       -0.0559
     17 C           2.0000    0.2500    0.0000 C.3     1  UNL1       -0.0653
     18 C          15.8564    0.2500    0.0000 C.3     1  UNL1       -0.0653
     19 H           6.0010   -0.0600    0.0000 H       1  UNL1        0.0298
     20 H           6.7287    1.2250    0.0000 H       1  UNL1        0.0268
     21 H           5.9316    1.2250    0.0000 H       1  UNL1        0.0268
     22 H           6.7976   -0.2249    0.0000 H       1  UNL1        0.0265
     23 H           7.5947   -0.2249    0.0000 H       1  UNL1        0.0265
     24 H           8.4607    1.2250    0.0000 H       1  UNL1        0.0265
     25 H           7.6636    1.2250    0.0000 H       1  UNL1        0.0265
     26 H           4.9966    1.2250    0.0000 H       1  UNL1        0.0268
     27 H           4.1996    1.2250    0.0000 H       1  UNL1        0.0268
     28 H           8.5297   -0.2249    0.0000 H       1  UNL1        0.0265
     29 H           9.3267   -0.2249    0.0000 H       1  UNL1        0.0265
     30 H          10.1928    1.2250    0.0000 H       1  UNL1        0.0265
     31 H           9.3957    1.2250    0.0000 H       1  UNL1        0.0265
     32 H          10.2617   -0.2249    0.0000 H       1  UNL1        0.0265
     33 H          11.0588   -0.2249    0.0000 H       1  UNL1        0.0265
     34 H           3.3335   -0.2249    0.0000 H       1  UNL1        0.0265
     35 H           4.1306   -0.2249    0.0000 H       1  UNL1        0.0265
     36 H          11.9248    1.2250    0.0000 H       1  UNL1        0.0265
     37 H          11.1278    1.2250    0.0000 H       1  UNL1        0.0265
     38 H           4.8441   -0.7500    0.0000 H       1  UNL1        0.0232
     39 H           5.4641   -1.3700    0.0000 H       1  UNL1        0.0232
     40 H           6.0841   -0.7500    0.0000 H       1  UNL1        0.0232
     41 H          11.9938   -0.2249    0.0000 H       1  UNL1        0.0265
     42 H          12.7908   -0.2249    0.0000 H       1  UNL1        0.0265
     43 H          13.6569    1.2250    0.0000 H       1  UNL1        0.0265
     44 H          12.8598    1.2250    0.0000 H       1  UNL1        0.0265
     45 H           3.2646    1.2250    0.0000 H       1  UNL1        0.0263
     46 H           2.4675    1.2250    0.0000 H       1  UNL1        0.0263
     47 H          13.7258   -0.2249    0.0000 H       1  UNL1        0.0265
     48 H          14.5229   -0.2249    0.0000 H       1  UNL1        0.0265
     49 H          15.3889    1.2250    0.0000 H       1  UNL1        0.0263
     50 H          14.5919    1.2250    0.0000 H       1  UNL1        0.0263
     51 H           1.6900    0.7869    0.0000 H       1  UNL1        0.0230
     52 H           1.4631   -0.0600    0.0000 H       1  UNL1        0.0230
     53 H           2.3100   -0.2869    0.0000 H       1  UNL1        0.0230
     54 H          15.5464   -0.2869    0.0000 H       1  UNL1        0.0230
     55 H          16.3933   -0.0600    0.0000 H       1  UNL1        0.0230
     56 H          16.1664    0.7869    0.0000 H       1  UNL1        0.0230
@<TRIPOS>BOND
     1     1     2    1
     2     1     5    1
     3     1    11    1
     4     1    19    1
     5     2     3    1
     6     2    20    1
     7     2    21    1
     8     3     4    1
     9     3    22    1
    10     3    23    1
    11     4     6    1
    12     4    24    1
    13     4    25    1
    14     5     9    1
    15     5    26    1
    16     5    27    1
    17     6     7    1
    18     6    28    1
    19     6    29    1
    20     7     8    1
    21     7    30    1
    22     7    31    1
    23     8    10    1
    24     8    32    1
    25     8    33    1
    26     9    14    1
    27     9    34    1
    28     9    35    1
    29    10    12    1
    30    10    36    1
    31    10    37    1
    32    11    38    1
    33    11    39    1
    34    11    40    1
    35    12    13    1
    36    12    41    1
    37    12    42    1
    38    13    15    1
    39    13    43    1
    40    13    44    1
    41    14    17    1
    42    14    45    1
    43    14    46    1
    44    15    16    1
    45    15    47    1
    46    15    48    1
    47    16    18    1
    48    16    49    1
    49    16    50    1
    50    17    51    1
    51    17    52    1
    52    17    53    1
    53    18    54    1
    54    18    55    1
    55    18    56    1
