@<TRIPOS>MOLECULE
IMPHY012213
 20 20 0 0 0
SMALL
GASTEIGER

@<TRIPOS>ATOM
      1 O           6.0010   -1.0000    0.0000 O.3     1  UNL1       -0.5059
      2 O           2.5369    1.0000    0.0000 O.3     1  UNL1       -0.5059
      3 O           3.4030   -2.5000    0.0000 O.3     1  UNL1       -0.4770
      4 O           5.1350    2.5000    0.0000 O.3     1  UNL1       -0.4770
      5 O           5.1350   -2.5000    0.0000 O.2     1  UNL1       -0.2450
      6 O           3.4030    2.5000    0.0000 O.2     1  UNL1       -0.2450
      7 C           4.2690   -1.0000    0.0000 C.ar    1  UNL1        0.1036
      8 C           4.2690    1.0000    0.0000 C.ar    1  UNL1        0.1036
      9 C           5.1350   -0.5000    0.0000 C.ar    1  UNL1        0.1318
     10 C           3.4030    0.5000    0.0000 C.ar    1  UNL1        0.1318
     11 C           3.4030   -0.5000    0.0000 C.ar    1  UNL1       -0.0018
     12 C           5.1350    0.5000    0.0000 C.ar    1  UNL1       -0.0018
     13 C           4.2690   -2.0000    0.0000 C.2     1  UNL1        0.3405
     14 C           4.2690    2.0000    0.0000 C.2     1  UNL1        0.3405
     15 H           2.8660   -0.8100    0.0000 H       1  UNL1        0.0663
     16 H           5.6720    0.8100    0.0000 H       1  UNL1        0.0663
     17 H           6.5380   -0.6900    0.0000 H       1  UNL1        0.2922
     18 H           2.0000    0.6900    0.0000 H       1  UNL1        0.2922
     19 H           3.4030   -3.1200    0.0000 H       1  UNL1        0.2954
     20 H           5.1350    3.1200    0.0000 H       1  UNL1        0.2954
@<TRIPOS>BOND
     1     1     9    1
     2     1    17    1
     3     2    10    1
     4     2    18    1
     5     3    13    1
     6     3    19    1
     7     4    14    1
     8     4    20    1
     9     5    13    2
    10     6    14    2
    11     7     9   ar
    12     7    11   ar
    13     7    13    1
    14     8    10   ar
    15     8    12   ar
    16     8    14    1
    17     9    12   ar
    18    10    11   ar
    19    11    15    1
    20    12    16    1
