@<TRIPOS>MOLECULE
IMPHY007332
 57 61 0 0 0
SMALL
GASTEIGER

@<TRIPOS>ATOM
      1 O           7.3494    0.9405    0.0000 O.3     1  UNL1       -0.3585
      2 O           7.9771   -1.9063    0.0000 O.3     1  UNL1       -0.4589
      3 O           5.3307    1.6441    0.0000 O.3     1  UNL1       -0.3888
      4 O           7.0628    2.6441    0.0000 O.3     1  UNL1       -0.3858
      5 O           9.6906    0.1796    0.0000 O.3     1  UNL1       -0.3802
      6 O           9.4288    2.0101    0.0000 O.3     1  UNL1       -0.4659
      7 O           7.9288    2.8761    0.0000 O.2     1  UNL1       -0.2475
      8 O           9.7386   -1.8589    0.0000 O.2     1  UNL1       -0.2479
      9 O           2.5357   -1.9082    0.0000 O.2     1  UNL1       -0.5034
     10 O           2.5519    0.1834    0.0000 O.2     1  UNL1       -0.2888
     11 C           7.0628   -0.3559    0.0000 C.3     1  UNL1        0.0458
     12 C           6.1968    0.1441    0.0000 C.3     1  UNL1        0.0055
     13 C           7.9288    0.1441    0.0000 C.3     1  UNL1        0.0490
     14 C           5.2868   -0.3628    0.0000 C.3     1  UNL1       -0.0123
     15 C           7.9288    1.1441    0.0000 C.3     1  UNL1        0.1997
     16 C           7.0789   -1.3974    0.0000 C.3     1  UNL1        0.1122
     17 C           6.1968    1.1441    0.0000 C.3     1  UNL1        0.0884
     18 C           5.2787   -1.4044    0.0000 C.3     1  UNL1       -0.0068
     19 C           6.9494    0.2477    0.0000 C.3     1  UNL1        0.0590
     20 C           7.0628    1.6441    0.0000 C.3     1  UNL1        0.1209
     21 C           6.1808   -1.9252    0.0000 C.3     1  UNL1       -0.0079
     22 C           8.8386   -0.3439    0.0000 C.3     1  UNL1        0.1583
     23 C           4.3599    0.2013    0.0000 C.3     1  UNL1        0.0198
     24 C           4.9520    0.5795    0.0000 C.3     1  UNL1       -0.0583
     25 C           4.3433   -1.9541    0.0000 C.2     1  UNL1       -0.0240
     26 C           8.4288    2.0101    0.0000 C.2     1  UNL1        0.3423
     27 C           8.8629   -1.3760    0.0000 C.2     1  UNL1        0.3367
     28 C           3.4120   -0.3266    0.0000 C.2     1  UNL1        0.1976
     29 C           3.4037   -1.4116    0.0000 C.2     1  UNL1        0.1584
     30 C           4.3472   -2.9541    0.0000 C.3     1  UNL1       -0.0397
     31 C           9.9288    2.8761    0.0000 C.3     1  UNL1        0.0818
     32 H           5.4606    0.5691    0.0000 H       1  UNL1        0.0339
     33 H           8.3538   -0.5920    0.0000 H       1  UNL1        0.0373
     34 H           7.0856   -2.2474    0.0000 H       1  UNL1        0.0740
     35 H           6.1968    1.7641    0.0000 H       1  UNL1        0.0623
     36 H           5.2820   -2.2544    0.0000 H       1  UNL1        0.0353
     37 H           6.5222    0.6971    0.0000 H       1  UNL1        0.0567
     38 H           6.3974   -0.0347    0.0000 H       1  UNL1        0.0567
     39 H           7.5997    1.9541    0.0000 H       1  UNL1        0.0654
     40 H           5.7835   -2.4012    0.0000 H       1  UNL1        0.0307
     41 H           6.5818   -2.3981    0.0000 H       1  UNL1        0.0307
     42 H           9.3833   -0.6402    0.0000 H       1  UNL1        0.0714
     43 H           4.7681    0.6680    0.0000 H       1  UNL1        0.0352
     44 H           3.9700    0.6834    0.0000 H       1  UNL1        0.0352
     45 H           5.5362    0.7871    0.0000 H       1  UNL1        0.0235
     46 H           4.7444    1.1638    0.0000 H       1  UNL1        0.0235
     47 H           4.3678    0.3720    0.0000 H       1  UNL1        0.0235
     48 H           5.3307    2.2641    0.0000 H       1  UNL1        0.2099
     49 H           6.5259    2.9541    0.0000 H       1  UNL1        0.2100
     50 H          10.2358   -0.1156    0.0000 H       1  UNL1        0.2105
     51 H           3.7272   -2.9565    0.0000 H       1  UNL1        0.0276
     52 H           4.3496   -3.5741    0.0000 H       1  UNL1        0.0276
     53 H           4.9672   -2.9517    0.0000 H       1  UNL1        0.0276
     54 H           2.0000   -1.5962    0.0000 H       1  UNL1        0.2923
     55 H          10.4658    2.5661    0.0000 H       1  UNL1        0.0661
     56 H          10.2388    3.4131    0.0000 H       1  UNL1        0.0661
     57 H           9.3919    3.1861    0.0000 H       1  UNL1        0.0661
@<TRIPOS>BOND
     1     1    15    1
     2     1    19    1
     3     2    16    1
     4     2    27    1
     5    17     3    1
     6     3    48    1
     7    20     4    1
     8     4    49    1
     9    22     5    1
    10     5    50    1
    11     6    26    1
    12     6    31    1
    13     7    26    2
    14     8    27    2
    15     9    29    1
    16     9    54    1
    17    10    28    2
    18    11    12    1
    19    11    13    1
    20    11    16    1
    21    11    19    1
    22    12    14    1
    23    12    17    1
    24    12    32    1
    25    13    15    1
    26    13    22    1
    27    13    33    1
    28    14    18    1
    29    14    23    1
    30    14    24    1
    31    15    20    1
    32    15    26    1
    33    16    21    1
    34    16    34    1
    35    17    20    1
    36    17    35    1
    37    18    21    1
    38    18    25    1
    39    18    36    1
    40    19    37    1
    41    19    38    1
    42    20    39    1
    43    21    40    1
    44    21    41    1
    45    22    27    1
    46    22    42    1
    47    23    28    1
    48    23    43    1
    49    23    44    1
    50    24    45    1
    51    24    46    1
    52    24    47    1
    53    25    29    2
    54    25    30    1
    55    28    29    1
    56    30    51    1
    57    30    52    1
    58    30    53    1
    59    31    55    1
    60    31    56    1
    61    31    57    1
