@<TRIPOS>MOLECULE
IMPHY009219
 124 135 0 0 0
SMALL
GASTEIGER

@<TRIPOS>ATOM
      1 O           9.0599   -4.2539    0.0000 O.3     1  UNL1       -0.4753
      2 O           9.2690   -1.2820    0.0000 O.3     1  UNL1       -0.4562
      3 O           9.6312   -0.3860    0.0000 O.3     1  UNL1       -0.4502
      4 O           6.2213   -2.3311    0.0000 O.3     1  UNL1       -0.4808
      5 O          10.0424   -5.0134    0.0000 O.2     1  UNL1       -0.2844
      6 O          11.7701   -4.4661    0.0000 O.2     1  UNL1       -0.5031
      7 O          10.9011   -2.4248    0.0000 O.2     1  UNL1       -0.2500
      8 O           8.6454    0.7746    0.0000 O.3     1  UNL1       -0.4501
      9 O           7.1357   -1.3774    0.0000 O.3     1  UNL1       -0.4505
     10 O           5.8616   -5.9168    0.0000 O.3     1  UNL1       -0.5063
     11 O           3.5162   -2.9635    0.0000 O.3     1  UNL1       -0.3875
     12 O          12.6670   -3.4283    0.0000 O.3     1  UNL1       -0.5028
     13 O          11.0129    0.4262    0.0000 O.2     1  UNL1       -0.2449
     14 O           7.1740    1.0342    0.0000 O.3     1  UNL1       -0.4573
     15 O          14.1984   -2.1019    0.0000 O.3     1  UNL1       -0.5009
     16 O          13.8001   -0.1154    0.0000 O.3     1  UNL1       -0.5032
     17 O           7.1338    1.5230    0.0000 O.2     1  UNL1       -0.2449
     18 O           8.9640   -2.0013    0.0000 O.2     1  UNL1       -0.2449
     19 O           5.5493    1.2383    0.0000 O.3     1  UNL1       -0.5032
     20 O           2.3698   -0.1367    0.0000 O.3     1  UNL1       -0.5032
     21 O           8.0329    2.7374    0.0000 O.2     1  UNL1       -0.2449
     22 O           3.5626    1.4686    0.0000 O.3     1  UNL1       -0.5009
     23 O           9.8146    4.6997    0.0000 O.3     1  UNL1       -0.5028
     24 O          11.6579    1.6776    0.0000 O.3     1  UNL1       -0.5032
     25 O          11.6164    3.7255    0.0000 O.3     1  UNL1       -0.5009
     26 O           8.9441    5.1790    0.0000 O.3     1  UNL1       -0.5028
     27 O           7.1576    6.1809    0.0000 O.3     1  UNL1       -0.5009
     28 O           5.4048    5.1210    0.0000 O.3     1  UNL1       -0.5032
     29 O           6.0372   -4.8116    0.0000 O.3     1  UNL1       -0.5032
     30 O           9.1038   -5.3843    0.0000 O.3     1  UNL1       -0.5032
     31 O           7.6985   -5.9254    0.0000 O.3     1  UNL1       -0.5009
     32 C           9.2690   -3.2820    0.0000 C.3     1  UNL1        0.2027
     33 C           8.4030   -2.7820    0.0000 C.3     1  UNL1        0.0801
     34 C          10.1351   -2.7820    0.0000 C.3     1  UNL1        0.1332
     35 C           8.4030   -1.7820    0.0000 C.3     1  UNL1        0.1545
     36 C           7.6660   -3.4491    0.0000 C.ar    1  UNL1        0.0474
     37 C           9.9361   -4.0191    0.0000 C.2     1  UNL1        0.2424
     38 C           8.7878   -0.8822    0.0000 C.3     1  UNL1        0.1809
     39 C          11.1069   -2.9913    0.0000 C.2     1  UNL1        0.0272
     40 C           8.0711   -4.3569    0.0000 C.ar    1  UNL1        0.1327
     41 C          10.1351   -1.7820    0.0000 C.2     1  UNL1        0.3195
     42 C          11.0269   -3.7970    0.0000 C.2     1  UNL1        0.1683
     43 C           6.6379   -3.3259    0.0000 C.ar    1  UNL1        0.1354
     44 C           8.1631   -0.1014    0.0000 C.3     1  UNL1        0.1834
     45 C          11.5211   -2.1046    0.0000 C.ar    1  UNL1        0.0420
     46 C           6.0236   -4.1594    0.0000 C.ar    1  UNL1        0.0387
     47 C           7.4762   -5.2044    0.0000 C.ar    1  UNL1        0.0224
     48 C           7.2026   -0.3797    0.0000 C.3     1  UNL1        0.1774
     49 C           6.4455   -5.1050    0.0000 C.ar    1  UNL1        0.1271
     50 C           4.9500   -4.0559    0.0000 C.3     1  UNL1        0.0092
     51 C          11.3287   -1.1451    0.0000 C.ar    1  UNL1        0.0737
     52 C           5.1504   -2.2027    0.0000 C.3     1  UNL1        0.1514
     53 C           4.5104   -3.0710    0.0000 C.3     1  UNL1        0.1004
     54 C          10.6047   -0.4867    0.0000 C.2     1  UNL1        0.3405
     55 C          12.4817   -2.4456    0.0000 C.ar    1  UNL1        0.1705
     56 C           6.4813    0.3129    0.0000 C.3     1  UNL1        0.1333
     57 C          12.0835   -0.4601    0.0000 C.ar    1  UNL1       -0.0017
     58 C           4.7534   -1.2849    0.0000 C.ar    1  UNL1        0.0023
     59 C          13.2522   -1.7782    0.0000 C.ar    1  UNL1        0.2012
     60 C          13.0518   -0.7788    0.0000 C.ar    1  UNL1        0.1628
     61 C           8.1280    1.6303    0.0000 C.2     1  UNL1        0.3405
     62 C           3.7601   -1.1697    0.0000 C.ar    1  UNL1       -0.0095
     63 C           5.3498   -0.4822    0.0000 C.ar    1  UNL1       -0.0095
     64 C           7.9662   -1.9343    0.0000 C.2     1  UNL1        0.3399
     65 C           8.9837    2.1478    0.0000 C.ar    1  UNL1        0.0740
     66 C           4.9529    0.4356    0.0000 C.ar    1  UNL1        0.1623
     67 C           3.3631   -0.2519    0.0000 C.ar    1  UNL1        0.1623
     68 C           7.2520    2.1127    0.0000 C.2     1  UNL1        0.3401
     69 C           8.9635    3.1476    0.0000 C.ar    1  UNL1        0.0458
     70 C           3.9595    0.5508    0.0000 C.ar    1  UNL1        0.2006
     71 C           7.8993   -2.9321    0.0000 C.ar    1  UNL1        0.0661
     72 C           9.8883    1.6313    0.0000 C.ar    1  UNL1       -0.0017
     73 C           7.2318    3.1125    0.0000 C.ar    1  UNL1        0.0740
     74 C           8.0875    3.6299    0.0000 C.ar    1  UNL1        0.0458
     75 C           9.8464    3.7002    0.0000 C.ar    1  UNL1        0.1708
     76 C          10.7838    2.1634    0.0000 C.ar    1  UNL1        0.1628
     77 C           8.7300   -3.4890    0.0000 C.ar    1  UNL1       -0.0023
     78 C           7.0018   -3.3730    0.0000 C.ar    1  UNL1       -0.0023
     79 C          10.7627    3.2048    0.0000 C.ar    1  UNL1        0.2012
     80 C           8.0825    4.6715    0.0000 C.ar    1  UNL1        0.1708
     81 C           6.3117    3.6008    0.0000 C.ar    1  UNL1       -0.0017
     82 C           7.1740    5.1810    0.0000 C.ar    1  UNL1        0.2012
     83 C           6.2826    4.6420    0.0000 C.ar    1  UNL1        0.1628
     84 C           6.9348   -4.3708    0.0000 C.ar    1  UNL1        0.1628
     85 C           8.6630   -4.4867    0.0000 C.ar    1  UNL1        0.1628
     86 C           7.7655   -4.9276    0.0000 C.ar    1  UNL1        0.2006
     87 H           7.8363   -2.5306    0.0000 H       1  UNL1        0.0433
     88 H          10.6174   -2.3925    0.0000 H       1  UNL1        0.0509
     89 H           7.7956   -1.6576    0.0000 H       1  UNL1        0.0780
     90 H           8.1735   -0.9659    0.0000 H       1  UNL1        0.0811
     91 H           8.7808   -0.0483    0.0000 H       1  UNL1        0.0812
     92 H           7.7354   -5.7676    0.0000 H       1  UNL1        0.0691
     93 H           6.6244   -0.6035    0.0000 H       1  UNL1        0.0808
     94 H           4.3489   -4.2080    0.0000 H       1  UNL1        0.0342
     95 H           4.9969   -4.6741    0.0000 H       1  UNL1        0.0342
     96 H           5.5211   -1.7058    0.0000 H       1  UNL1        0.0811
     97 H           4.1455   -3.5722    0.0000 H       1  UNL1        0.0637
     98 H          11.6412   -5.0726    0.0000 H       1  UNL1        0.2923
     99 H           6.0341    0.7424    0.0000 H       1  UNL1        0.0736
    100 H           6.0519   -0.1342    0.0000 H       1  UNL1        0.0736
    101 H          11.9546    0.1464    0.0000 H       1  UNL1        0.0664
    102 H           6.1164   -6.4820    0.0000 H       1  UNL1        0.2921
    103 H           3.1503   -3.4640    0.0000 H       1  UNL1        0.2100
    104 H          13.2520   -3.6335    0.0000 H       1  UNL1        0.2923
    105 H           3.3903   -1.6674    0.0000 H       1  UNL1        0.0659
    106 H           5.9657   -0.5536    0.0000 H       1  UNL1        0.0659
    107 H          14.6655   -1.6941    0.0000 H       1  UNL1        0.2924
    108 H          13.6758    0.4920    0.0000 H       1  UNL1        0.2923
    109 H           9.8937    1.0113    0.0000 H       1  UNL1        0.0664
    110 H           9.2864   -3.2156    0.0000 H       1  UNL1        0.0663
    111 H           6.4868   -3.0277    0.0000 H       1  UNL1        0.0663
    112 H           5.3032    1.8074    0.0000 H       1  UNL1        0.2923
    113 H           2.0000   -0.6344    0.0000 H       1  UNL1        0.2923
    114 H           5.7849    3.2739    0.0000 H       1  UNL1        0.0664
    115 H           2.9467    1.5400    0.0000 H       1  UNL1        0.2924
    116 H          10.3414    5.0266    0.0000 H       1  UNL1        0.2923
    117 H          12.1897    1.9964    0.0000 H       1  UNL1        0.2923
    118 H          12.1607    3.4286    0.0000 H       1  UNL1        0.2924
    119 H           8.9388    5.7990    0.0000 H       1  UNL1        0.2923
    120 H           6.6156    6.4820    0.0000 H       1  UNL1        0.2924
    121 H           4.8755    4.7982    0.0000 H       1  UNL1        0.2923
    122 H           5.4186   -4.7701    0.0000 H       1  UNL1        0.2923
    123 H           8.7586   -5.8992    0.0000 H       1  UNL1        0.2923
    124 H           7.1420   -6.1987    0.0000 H       1  UNL1        0.2924
@<TRIPOS>BOND
     1     1    32    1
     2     1    40    1
     3     2    35    1
     4     2    41    1
     5     3    38    1
     6     3    54    1
     7     4    43    1
     8     4    52    1
     9     5    37    2
    10     6    42    1
    11     6    98    1
    12     7    41    2
    13     8    44    1
    14     8    61    1
    15     9    48    1
    16     9    64    1
    17    10    49    1
    18    10   102    1
    19    11    53    1
    20    11   103    1
    21    12    55    1
    22    12   104    1
    23    13    54    2
    24    14    56    1
    25    14    68    1
    26    15    59    1
    27    15   107    1
    28    16    60    1
    29    16   108    1
    30    17    61    2
    31    18    64    2
    32    19    66    1
    33    19   112    1
    34    20    67    1
    35    20   113    1
    36    21    68    2
    37    22    70    1
    38    22   115    1
    39    23    75    1
    40    23   116    1
    41    24    76    1
    42    24   117    1
    43    25    79    1
    44    25   118    1
    45    26    80    1
    46    26   119    1
    47    27    82    1
    48    27   120    1
    49    28    83    1
    50    28   121    1
    51    29    84    1
    52    29   122    1
    53    30    85    1
    54    30   123    1
    55    31    86    1
    56    31   124    1
    57    32    33    1
    58    32    34    1
    59    32    37    1
    60    33    35    1
    61    33    36    1
    62    33    87    1
    63    34    39    1
    64    34    41    1
    65    34    88    1
    66    35    38    1
    67    35    89    1
    68    36    40   ar
    69    36    43   ar
    70    37    42    1
    71    38    44    1
    72    38    90    1
    73    39    42    2
    74    39    45    1
    75    40    47   ar
    76    43    46   ar
    77    44    48    1
    78    44    91    1
    79    45    51   ar
    80    45    55   ar
    81    46    49   ar
    82    46    50    1
    83    47    49   ar
    84    47    92    1
    85    48    56    1
    86    48    93    1
    87    50    53    1
    88    50    94    1
    89    50    95    1
    90    51    54    1
    91    51    57   ar
    92    52    53    1
    93    52    58    1
    94    52    96    1
    95    53    97    1
    96    55    59   ar
    97    56    99    1
    98    56   100    1
    99    57    60   ar
   100    57   101    1
   101    58    62   ar
   102    58    63   ar
   103    59    60   ar
   104    61    65    1
   105    62    67   ar
   106    62   105    1
   107    63    66   ar
   108    63   106    1
   109    64    71    1
   110    65    69   ar
   111    65    72   ar
   112    66    70   ar
   113    67    70   ar
   114    68    73    1
   115    69    74    1
   116    69    75   ar
   117    71    77   ar
   118    71    78   ar
   119    72    76   ar
   120    72   109    1
   121    73    74   ar
   122    73    81   ar
   123    74    80   ar
   124    75    79   ar
   125    76    79   ar
   126    77    85   ar
   127    77   110    1
   128    78    84   ar
   129    78   111    1
   130    80    82   ar
   131    81    83   ar
   132    81   114    1
   133    82    83   ar
   134    84    86   ar
   135    85    86   ar
