@<TRIPOS>MOLECULE
IMPHY014392
 36 37 0 0 0
SMALL
GASTEIGER

@<TRIPOS>ATOM
      1 O           6.4103   -1.6817    0.0000 O.2     1  UNL1       -0.4672
      2 O           2.0000    1.6230    0.0000 O.3     1  UNL1       -0.4773
      3 O           3.7320    1.6230    0.0000 O.2     1  UNL1       -0.2455
      4 C           3.7320   -1.3770    0.0000 C.3     1  UNL1       -0.0002
      5 C           3.7320   -0.3770    0.0000 C.3     1  UNL1        0.0036
      6 C           4.5981   -1.8770    0.0000 C.3     1  UNL1        0.0152
      7 C           4.5981    0.1230    0.0000 C.3     1  UNL1       -0.0164
      8 C           5.4641   -0.3770    0.0000 C.ar    1  UNL1       -0.0029
      9 C           5.4641   -1.3770    0.0000 C.ar    1  UNL1        0.1091
     10 C           3.2320   -2.2430    0.0000 C.3     1  UNL1       -0.0551
     11 C           2.7320   -1.3770    0.0000 C.2     1  UNL1       -0.0842
     12 C           2.8660    0.1230    0.0000 C.2     1  UNL1        0.0336
     13 C           6.4103   -0.0723    0.0000 C.ar    1  UNL1       -0.0093
     14 C           6.9939   -0.8770    0.0000 C.ar    1  UNL1        0.0952
     15 C           6.7210    0.8783    0.0000 C.3     1  UNL1       -0.0365
     16 C           2.8660    1.1230    0.0000 C.2     1  UNL1        0.3325
     17 C           2.2320   -2.2430    0.0000 C.2     1  UNL1       -0.1021
     18 C           2.0000   -0.3770    0.0000 C.2     1  UNL1       -0.0884
     19 H           3.7320    0.2430    0.0000 H       1  UNL1        0.0362
     20 H           4.1996   -2.3519    0.0000 H       1  UNL1        0.0352
     21 H           4.9966   -2.3519    0.0000 H       1  UNL1        0.0352
     22 H           4.9966    0.5980    0.0000 H       1  UNL1        0.0320
     23 H           4.1996    0.5980    0.0000 H       1  UNL1        0.0320
     24 H           2.6951   -1.9330    0.0000 H       1  UNL1        0.0238
     25 H           2.9220   -2.7800    0.0000 H       1  UNL1        0.0238
     26 H           3.7690   -2.5530    0.0000 H       1  UNL1        0.0238
     27 H           2.4220   -0.8401    0.0000 H       1  UNL1        0.0572
     28 H           7.6139   -0.8770    0.0000 H       1  UNL1        0.1032
     29 H           7.3103    0.6857    0.0000 H       1  UNL1        0.0279
     30 H           6.9136    1.4676    0.0000 H       1  UNL1        0.0279
     31 H           6.1317    1.0709    0.0000 H       1  UNL1        0.0279
     32 H           1.6120   -2.2430    0.0000 H       1  UNL1        0.0532
     33 H           2.5420   -2.7800    0.0000 H       1  UNL1        0.0532
     34 H           1.4631   -0.0670    0.0000 H       1  UNL1        0.0540
     35 H           2.0000   -0.9970    0.0000 H       1  UNL1        0.0540
     36 H           2.0000    2.2430    0.0000 H       1  UNL1        0.2954
@<TRIPOS>BOND
     1     1     9   ar
     2     1    14   ar
     3     2    16    1
     4     2    36    1
     5     3    16    2
     6     4     5    1
     7     4     6    1
     8     4    10    1
     9     4    11    1
    10     5     7    1
    11     5    12    1
    12     5    19    1
    13     6     9    1
    14     6    20    1
    15     6    21    1
    16     7     8    1
    17     7    22    1
    18     7    23    1
    19     8     9   ar
    20     8    13   ar
    21    10    24    1
    22    10    25    1
    23    10    26    1
    24    11    17    2
    25    11    27    1
    26    12    16    1
    27    12    18    2
    28    13    14   ar
    29    13    15    1
    30    14    28    1
    31    15    29    1
    32    15    30    1
    33    15    31    1
    34    17    32    1
    35    17    33    1
    36    18    34    1
    37    18    35    1
