@<TRIPOS>MOLECULE
IMPHY014004
 53 57 0 0 0
SMALL
GASTEIGER

@<TRIPOS>ATOM
      1 O           5.9131    0.8566    0.0000 O.3     1  UNL1       -0.3723
      2 O           3.1708    0.0086    0.0000 O.3     1  UNL1       -0.3888
      3 O           3.0296   -0.8310    0.0000 O.2     1  UNL1       -0.2721
      4 O           3.7019   -2.9001    0.0000 O.3     1  UNL1       -0.2756
      5 O           7.6614   -3.4128    0.0000 O.3     1  UNL1       -0.4950
      6 N           2.7364    1.2083    0.0000 N.3     1  UNL1       -0.3098
      7 N           4.2896   -2.0911    0.0000 N.am    1  UNL1       -0.1475
      8 C           3.7399    2.4666    0.0000 C.3     1  UNL1        0.0092
      9 C           4.2896    1.6384    0.0000 C.3     1  UNL1        0.0046
     10 C           3.6662    0.8566    0.0000 C.3     1  UNL1        0.0145
     11 C           4.7896   -0.5522    0.0000 C.3     1  UNL1        0.1059
     12 C           5.6906   -0.1184    0.0000 C.3     1  UNL1        0.1029
     13 C           3.9690    0.6110    0.0000 C.3     1  UNL1        0.0872
     14 C           2.7818    2.2013    0.0000 C.3     1  UNL1        0.0133
     15 C           3.8887   -0.1184    0.0000 C.3     1  UNL1       -0.0165
     16 C           5.2896    1.6384    0.0000 C.3     1  UNL1        0.0528
     17 C           5.5987   -1.1400    0.0000 C.ar    1  UNL1       -0.0058
     18 C           2.0000    2.8248    0.0000 C.3     1  UNL1       -0.0400
     19 C           3.9806   -1.1400    0.0000 C.2     1  UNL1        0.2560
     20 C           5.2896   -2.0911    0.0000 C.ar    1  UNL1        0.0721
     21 C           2.1490    3.8136    0.0000 C.3     1  UNL1       -0.0639
     22 C           6.6141   -0.9078    0.0000 C.ar    1  UNL1       -0.0522
     23 C           5.9746   -2.8758    0.0000 C.ar    1  UNL1        0.0041
     24 C           7.3170   -1.6765    0.0000 C.ar    1  UNL1       -0.0195
     25 C           6.9951   -2.6671    0.0000 C.ar    1  UNL1        0.1220
     26 C           4.1086   -3.8136    0.0000 C.3     1  UNL1        0.0629
     27 C           8.6403   -3.2087    0.0000 C.3     1  UNL1        0.0788
     28 H           3.9567    3.0474    0.0000 H       1  UNL1        0.0346
     29 H           4.5586    1.0798    0.0000 H       1  UNL1        0.0342
     30 H           3.1987    0.4493    0.0000 H       1  UNL1        0.0464
     31 H           6.1754   -0.5049    0.0000 H       1  UNL1        0.0636
     32 H           3.3981    0.8528    0.0000 H       1  UNL1        0.0623
     33 H           2.2172    1.9452    0.0000 H       1  UNL1        0.0464
     34 H           3.2687   -0.1184    0.0000 H       1  UNL1        0.0294
     35 H           3.7507   -0.7228    0.0000 H       1  UNL1        0.0294
     36 H           2.2184    0.8676    0.0000 H       1  UNL1        0.1225
     37 H           5.8482    1.9074    0.0000 H       1  UNL1        0.0563
     38 H           5.1517    2.2429    0.0000 H       1  UNL1        0.0563
     39 H           1.4123    3.0223    0.0000 H       1  UNL1        0.0278
     40 H           1.7035    2.2803    0.0000 H       1  UNL1        0.0278
     41 H           2.5999    0.2505    0.0000 H       1  UNL1        0.2099
     42 H           2.7621    3.7212    0.0000 H       1  UNL1        0.0230
     43 H           2.2414    4.4267    0.0000 H       1  UNL1        0.0230
     44 H           1.5360    3.9060    0.0000 H       1  UNL1        0.0230
     45 H           6.7988   -0.3159    0.0000 H       1  UNL1        0.0622
     46 H           5.7762   -3.4632    0.0000 H       1  UNL1        0.0674
     47 H           7.9230   -1.5452    0.0000 H       1  UNL1        0.0654
     48 H           3.5422   -4.0658    0.0000 H       1  UNL1        0.0547
     49 H           4.3608   -4.3800    0.0000 H       1  UNL1        0.0547
     50 H           4.6750   -3.5615    0.0000 H       1  UNL1        0.0547
     51 H           8.7669   -3.8156    0.0000 H       1  UNL1        0.0660
     52 H           9.2473   -3.0821    0.0000 H       1  UNL1        0.0660
     53 H           8.5138   -2.6017    0.0000 H       1  UNL1        0.0660
@<TRIPOS>BOND
     1     1    12    1
     2     1    16    1
     3     2    13    1
     4     2    41    1
     5     3    19    2
     6     4     7    1
     7     4    26    1
     8     5    25    1
     9     5    27    1
    10     6    10    1
    11     6    14    1
    12     6    36    1
    13     7    19   am
    14     7    20    1
    15     8     9    1
    16     8    13    1
    17     8    14    1
    18     8    28    1
    19     9    10    1
    20     9    16    1
    21     9    29    1
    22    10    15    1
    23    10    30    1
    24    11    12    1
    25    11    15    1
    26    11    17    1
    27    11    19    1
    28    12    13    1
    29    12    31    1
    30    13    32    1
    31    14    18    1
    32    14    33    1
    33    15    34    1
    34    15    35    1
    35    16    37    1
    36    16    38    1
    37    17    20   ar
    38    17    22   ar
    39    18    21    1
    40    18    39    1
    41    18    40    1
    42    20    23   ar
    43    21    42    1
    44    21    43    1
    45    21    44    1
    46    22    24   ar
    47    22    45    1
    48    23    25   ar
    49    23    46    1
    50    24    25   ar
    51    24    47    1
    52    26    48    1
    53    26    49    1
    54    26    50    1
    55    27    51    1
    56    27    52    1
    57    27    53    1
