@<TRIPOS>MOLECULE
IMPHY010433
 72 76 0 0 0
SMALL
GASTEIGER

@<TRIPOS>ATOM
      1 O           7.7331   -1.7856    0.0000 O.3     1  UNL1       -0.3313
      2 O           4.2690   -2.7856    0.0000 O.3     1  UNL1       -0.3431
      3 O           6.0010   -2.7856    0.0000 O.3     1  UNL1       -0.3461
      4 O           6.0010    0.2144    0.0000 O.3     1  UNL1       -0.3865
      5 O           7.7331    1.2144    0.0000 O.3     1  UNL1       -0.3864
      6 O           9.4651   -1.7856    0.0000 O.3     1  UNL1       -0.4569
      7 O           9.4651    0.2144    0.0000 O.3     1  UNL1       -0.3829
      8 O           6.0010   -4.7857    0.0000 O.3     1  UNL1       -0.3841
      9 O           4.2690   -5.7857    0.0000 O.3     1  UNL1       -0.3864
     10 O           2.5369   -4.7857    0.0000 O.3     1  UNL1       -0.3866
     11 O          11.1811    1.2559    0.0000 O.2     1  UNL1       -0.4544
     12 O          11.1972   -2.7856    0.0000 O.3     1  UNL1       -0.5009
     13 O          12.9292   -1.7856    0.0000 O.3     1  UNL1       -0.5027
     14 O          13.8334   -0.2888    0.0000 O.2     1  UNL1       -0.2869
     15 O          12.0637    5.7836    0.0000 O.3     1  UNL1       -0.5068
     16 C           6.8671   -1.2856    0.0000 C.3     1  UNL1        0.1144
     17 C           6.8671   -0.2856    0.0000 C.3     1  UNL1        0.1120
     18 C           7.7331    0.2144    0.0000 C.3     1  UNL1        0.1152
     19 C           8.5991   -0.2856    0.0000 C.3     1  UNL1        0.1454
     20 C           5.1350   -4.2857    0.0000 C.3     1  UNL1        0.1341
     21 C           5.1350   -3.2856    0.0000 C.3     1  UNL1        0.1879
     22 C           4.2690   -4.7857    0.0000 C.3     1  UNL1        0.1140
     23 C           3.4030   -4.2857    0.0000 C.3     1  UNL1        0.1095
     24 C           8.5991   -1.2856    0.0000 C.3     1  UNL1        0.2310
     25 C           3.4030   -3.2856    0.0000 C.3     1  UNL1        0.0873
     26 C           6.0010   -1.7856    0.0000 C.3     1  UNL1        0.0796
     27 C           2.5369   -2.7856    0.0000 C.3     1  UNL1       -0.0361
     28 C          10.3312   -1.2856    0.0000 C.ar    1  UNL1        0.1724
     29 C          11.1972   -1.7856    0.0000 C.ar    1  UNL1        0.2019
     30 C          10.3312   -0.2856    0.0000 C.ar    1  UNL1        0.0271
     31 C          11.1972    0.2144    0.0000 C.ar    1  UNL1        0.1465
     32 C          12.0632   -1.2856    0.0000 C.ar    1  UNL1        0.1766
     33 C          12.0632   -0.2856    0.0000 C.ar    1  UNL1        0.1091
     34 C          12.9732    0.2212    0.0000 C.ar    1  UNL1        0.1967
     35 C          12.0792    1.7836    0.0000 C.ar    1  UNL1        0.1392
     36 C          12.9812    1.2628    0.0000 C.ar    1  UNL1        0.0288
     37 C          12.0753    2.7836    0.0000 C.ar    1  UNL1        0.0176
     38 C          11.2074    3.2803    0.0000 C.ar    1  UNL1       -0.0476
     39 C          12.9394    3.2869    0.0000 C.ar    1  UNL1       -0.0476
     40 C          11.2035    4.2803    0.0000 C.ar    1  UNL1       -0.0195
     41 C          12.9356    4.2869    0.0000 C.ar    1  UNL1       -0.0195
     42 C          12.0676    4.7836    0.0000 C.ar    1  UNL1        0.1169
     43 H           6.8671   -1.9056    0.0000 H       1  UNL1        0.0647
     44 H           6.3301   -0.5956    0.0000 H       1  UNL1        0.0647
     45 H           7.1962    0.5244    0.0000 H       1  UNL1        0.0648
     46 H           8.5991    0.3344    0.0000 H       1  UNL1        0.0683
     47 H           5.1350   -4.9056    0.0000 H       1  UNL1        0.0671
     48 H           5.1350   -2.6656    0.0000 H       1  UNL1        0.0937
     49 H           3.7320   -5.0956    0.0000 H       1  UNL1        0.0648
     50 H           2.8660   -3.9756    0.0000 H       1  UNL1        0.0646
     51 H           8.5991   -1.9056    0.0000 H       1  UNL1        0.1084
     52 H           3.4030   -2.6656    0.0000 H       1  UNL1        0.0621
     53 H           5.7890   -1.2030    0.0000 H       1  UNL1        0.0587
     54 H           5.3905   -1.8933    0.0000 H       1  UNL1        0.0587
     55 H           2.8469   -2.2487    0.0000 H       1  UNL1        0.0255
     56 H           2.0000   -2.4756    0.0000 H       1  UNL1        0.0255
     57 H           2.2269   -3.3226    0.0000 H       1  UNL1        0.0255
     58 H           5.4641   -0.0956    0.0000 H       1  UNL1        0.2100
     59 H           7.1962    1.5244    0.0000 H       1  UNL1        0.2100
     60 H           9.4651    0.8344    0.0000 H       1  UNL1        0.2102
     61 H           6.5380   -4.4756    0.0000 H       1  UNL1        0.2101
     62 H           3.7320   -6.0956    0.0000 H       1  UNL1        0.2100
     63 H           2.0000   -4.4756    0.0000 H       1  UNL1        0.2100
     64 H           9.7942    0.0244    0.0000 H       1  UNL1        0.0692
     65 H          11.7341   -3.0956    0.0000 H       1  UNL1        0.2924
     66 H          13.5194    1.5707    0.0000 H       1  UNL1        0.0693
     67 H          12.9292   -2.4056    0.0000 H       1  UNL1        0.2923
     68 H          10.6716    2.9682    0.0000 H       1  UNL1        0.0626
     69 H          13.4775    2.9790    0.0000 H       1  UNL1        0.0626
     70 H          10.6654    4.5882    0.0000 H       1  UNL1        0.0654
     71 H          13.4713    4.5990    0.0000 H       1  UNL1        0.0654
     72 H          12.5995    6.0956    0.0000 H       1  UNL1        0.2921
@<TRIPOS>BOND
     1     1    16    1
     2     1    24    1
     3     2    21    1
     4     2    25    1
     5    21     3    1
     6     3    26    1
     7    17     4    1
     8     4    58    1
     9    18     5    1
    10     5    59    1
    11    24     6    1
    12     6    28    1
    13     7    19    1
    14     7    60    1
    15     8    20    1
    16     8    61    1
    17    22     9    1
    18     9    62    1
    19    23    10    1
    20    10    63    1
    21    11    31   ar
    22    11    35   ar
    23    12    29    1
    24    12    65    1
    25    13    32    1
    26    13    67    1
    27    14    34    2
    28    15    42    1
    29    15    72    1
    30    16    17    1
    31    16    26    1
    32    16    43    1
    33    17    18    1
    34    17    44    1
    35    18    19    1
    36    18    45    1
    37    19    24    1
    38    19    46    1
    39    20    21    1
    40    20    22    1
    41    20    47    1
    42    21    48    1
    43    22    23    1
    44    22    49    1
    45    23    25    1
    46    23    50    1
    47    24    51    1
    48    25    27    1
    49    25    52    1
    50    26    53    1
    51    26    54    1
    52    27    55    1
    53    27    56    1
    54    27    57    1
    55    28    29   ar
    56    28    30   ar
    57    29    32   ar
    58    30    31   ar
    59    30    64    1
    60    31    33   ar
    61    32    33   ar
    62    33    34   ar
    63    34    36   ar
    64    35    36   ar
    65    35    37    1
    66    36    66    1
    67    37    38   ar
    68    37    39   ar
    69    38    40   ar
    70    38    68    1
    71    39    41   ar
    72    39    69    1
    73    40    42   ar
    74    40    70    1
    75    41    42   ar
    76    41    71    1
