@<TRIPOS>MOLECULE
IMPHY003528
 47 51 0 0 0
SMALL
GASTEIGER

@<TRIPOS>ATOM
      1 O          10.8912    1.1169    0.0000 O.3     1  UNL1       -0.4611
      2 O           4.2886   -1.0038    0.0000 O.3     1  UNL1       -0.4562
      3 O           8.7912   -1.7956    0.0000 O.3     1  UNL1       -0.3915
      4 O          11.1324   -0.7151    0.0000 O.2     1  UNL1       -0.2505
      5 O           5.1222   -2.6083    0.0000 O.2     1  UNL1       -0.2505
      6 O           2.0000    1.1107    0.0000 O.2     1  UNL1       -0.4706
      7 C           7.1834    0.3533    0.0000 C.3     1  UNL1       -0.0255
      8 C           6.2402   -0.0888    0.0000 C.3     1  UNL1       -0.0121
      9 C           8.0124   -0.2059    0.0000 C.3     1  UNL1        0.0015
     10 C           6.1596   -1.1273    0.0000 C.3     1  UNL1        0.0645
     11 C           9.2334    0.6598    0.0000 C.3     1  UNL1        0.0652
     12 C           7.4590    1.3146    0.0000 C.3     1  UNL1       -0.0119
     13 C           7.9558   -1.2460    0.0000 C.3     1  UNL1        0.0599
     14 C           7.0231   -1.7098    0.0000 C.3     1  UNL1       -0.0131
     15 C           9.4923    1.6257    0.0000 C.3     1  UNL1        0.1041
     16 C           8.7556    2.6083    0.0000 C.3     1  UNL1       -0.0024
     17 C           5.3550    0.5385    0.0000 C.3     1  UNL1       -0.0049
     18 C           6.3177    0.9082    0.0000 C.3     1  UNL1       -0.0584
     19 C          10.6324    0.1509    0.0000 C.2     1  UNL1        0.3109
     20 C           4.3726    0.0780    0.0000 C.3     1  UNL1        0.1315
     21 C           5.1881   -1.6105    0.0000 C.2     1  UNL1        0.3114
     22 C           3.5501    0.6467    0.0000 C.ar    1  UNL1        0.0304
     23 C           3.5268    1.6464    0.0000 C.ar    1  UNL1       -0.0172
     24 C           2.6065    0.3156    0.0000 C.ar    1  UNL1        0.0983
     25 C           2.5687    1.9332    0.0000 C.ar    1  UNL1        0.0921
     26 H           6.5365    0.9047    0.0000 H       1  UNL1        0.0311
     27 H           8.7566   -0.6166    0.0000 H       1  UNL1        0.0336
     28 H           6.1036   -1.9755    0.0000 H       1  UNL1        0.0420
     29 H           9.8662    1.2274    0.0000 H       1  UNL1        0.0418
     30 H           7.4540    1.9345    0.0000 H       1  UNL1        0.0304
     31 H           6.8447    1.3983    0.0000 H       1  UNL1        0.0304
     32 H           7.9047   -2.0944    0.0000 H       1  UNL1        0.0596
     33 H           6.5936   -2.1569    0.0000 H       1  UNL1        0.0298
     34 H           7.3901   -2.2095    0.0000 H       1  UNL1        0.0298
     35 H           9.9986    2.3084    0.0000 H       1  UNL1        0.0734
     36 H           9.0734    3.1407    0.0000 H       1  UNL1        0.0309
     37 H           8.1425    2.7003    0.0000 H       1  UNL1        0.0309
     38 H           5.7948    0.9756    0.0000 H       1  UNL1        0.0310
     39 H           4.9997    1.0466    0.0000 H       1  UNL1        0.0310
     40 H           6.9358    0.8601    0.0000 H       1  UNL1        0.0235
     41 H           6.3657    1.5263    0.0000 H       1  UNL1        0.0235
     42 H           5.6996    0.9562    0.0000 H       1  UNL1        0.0235
     43 H           4.4433    0.9250    0.0000 H       1  UNL1        0.0786
     44 H           8.7551   -2.4145    0.0000 H       1  UNL1        0.2098
     45 H           4.0197    2.0225    0.0000 H       1  UNL1        0.0653
     46 H           2.4287   -0.2784    0.0000 H       1  UNL1        0.1033
     47 H           2.3634    2.5182    0.0000 H       1  UNL1        0.1029
@<TRIPOS>BOND
     1     1    15    1
     2     1    19    1
     3     2    20    1
     4     2    21    1
     5     3    13    1
     6     3    44    1
     7     4    19    2
     8     5    21    2
     9     6    24   ar
    10     6    25   ar
    11     7     8    1
    12     7     9    1
    13     7    12    1
    14     7    26    1
    15     8    10    1
    16     8    17    1
    17     8    18    1
    18     9    11    1
    19     9    13    1
    20     9    27    1
    21    10    14    1
    22    10    21    1
    23    10    28    1
    24    11    16    1
    25    11    19    1
    26    11    29    1
    27    12    15    1
    28    12    30    1
    29    12    31    1
    30    13    14    1
    31    13    32    1
    32    14    33    1
    33    14    34    1
    34    15    16    1
    35    15    35    1
    36    16    36    1
    37    16    37    1
    38    17    20    1
    39    17    38    1
    40    17    39    1
    41    18    40    1
    42    18    41    1
    43    18    42    1
    44    20    22    1
    45    20    43    1
    46    22    23   ar
    47    22    24   ar
    48    23    25   ar
    49    23    45    1
    50    24    46    1
    51    25    47    1
