@<TRIPOS>MOLECULE
IMPHY000880
 37 39 0 0 0
SMALL
GASTEIGER

@<TRIPOS>ATOM
      1 O           6.4783   -1.0720    0.0000 O.3     1  UNL1       -0.4574
      2 O           8.0619   -0.2673    0.0000 O.2     1  UNL1       -0.2453
      3 C           3.8000   -0.7673    0.0000 C.3     1  UNL1       -0.0074
      4 C           4.6660   -1.2673    0.0000 C.3     1  UNL1       -0.0060
      5 C           3.8000    0.2327    0.0000 C.2     1  UNL1       -0.0638
      6 C           5.5321   -0.7673    0.0000 C.3     1  UNL1        0.1114
      7 C           5.5321    0.2327    0.0000 C.3     1  UNL1        0.0311
      8 C           4.6660    0.7327    0.0000 C.3     1  UNL1       -0.0206
      9 C           2.9061   -1.3020    0.0000 C.3     1  UNL1       -0.0435
     10 C           2.0000   -0.7881    0.0000 C.3     1  UNL1       -0.0486
     11 C           2.9061    0.7674    0.0000 C.2     1  UNL1       -0.0728
     12 C           3.8000   -1.7673    0.0000 C.3     1  UNL1       -0.0557
     13 C           2.0000    0.2535    0.0000 C.3     1  UNL1       -0.0317
     14 C           6.4783    0.5374    0.0000 C.2     1  UNL1        0.0364
     15 C           7.0619   -0.2673    0.0000 C.2     1  UNL1        0.3353
     16 C           2.9176    1.7673    0.0000 C.3     1  UNL1       -0.0435
     17 C           6.7889    1.4880    0.0000 C.2     1  UNL1       -0.0883
     18 H           4.2675   -1.7422    0.0000 H       1  UNL1        0.0309
     19 H           5.0646   -1.7422    0.0000 H       1  UNL1        0.0309
     20 H           5.6220   -1.6125    0.0000 H       1  UNL1        0.0740
     21 H           5.6220    1.0779    0.0000 H       1  UNL1        0.0390
     22 H           5.0646    1.2076    0.0000 H       1  UNL1        0.0317
     23 H           4.2675    1.2076    0.0000 H       1  UNL1        0.0317
     24 H           2.5124   -1.7810    0.0000 H       1  UNL1        0.0274
     25 H           3.3107   -1.7718    0.0000 H       1  UNL1        0.0274
     26 H           1.3891   -0.6820    0.0000 H       1  UNL1        0.0269
     27 H           1.7909   -1.3718    0.0000 H       1  UNL1        0.0269
     28 H           3.1800   -1.7673    0.0000 H       1  UNL1        0.0238
     29 H           3.8000   -2.3873    0.0000 H       1  UNL1        0.0238
     30 H           4.4200   -1.7673    0.0000 H       1  UNL1        0.0238
     31 H           1.7909    0.8372    0.0000 H       1  UNL1        0.0310
     32 H           1.3891    0.1474    0.0000 H       1  UNL1        0.0310
     33 H           3.5376    1.7601    0.0000 H       1  UNL1        0.0274
     34 H           2.9248    2.3873    0.0000 H       1  UNL1        0.0274
     35 H           2.2977    1.7745    0.0000 H       1  UNL1        0.0274
     36 H           7.3956    1.6158    0.0000 H       1  UNL1        0.0540
     37 H           6.3749    1.9494    0.0000 H       1  UNL1        0.0540
@<TRIPOS>BOND
     1     1     6    1
     2     1    15    1
     3     2    15    2
     4     3     4    1
     5     3     5    1
     6     3     9    1
     7     3    12    1
     8     4     6    1
     9     4    18    1
    10     4    19    1
    11     5     8    1
    12     5    11    2
    13     6     7    1
    14     6    20    1
    15     7     8    1
    16     7    14    1
    17     7    21    1
    18     8    22    1
    19     8    23    1
    20     9    10    1
    21     9    24    1
    22     9    25    1
    23    10    13    1
    24    10    26    1
    25    10    27    1
    26    11    13    1
    27    11    16    1
    28    12    28    1
    29    12    29    1
    30    12    30    1
    31    13    31    1
    32    13    32    1
    33    14    15    1
    34    14    17    2
    35    16    33    1
    36    16    34    1
    37    16    35    1
    38    17    36    1
    39    17    37    1
