@<TRIPOS>MOLECULE
IMPHY009597
 36 37 0 0 0
SMALL
GASTEIGER

@<TRIPOS>ATOM
      1 O           4.2690   -0.5950    0.0000 O.3     1  UNL1       -0.3313
      2 O           4.2690   -3.5950    0.0000 O.3     1  UNL1       -0.3864
      3 O           2.5369   -2.5950    0.0000 O.3     1  UNL1       -0.3865
      4 O           6.0010   -0.5950    0.0000 O.3     1  UNL1       -0.4608
      5 O           6.0010   -2.5950    0.0000 O.3     1  UNL1       -0.3829
      6 O           2.5369    0.4050    0.0000 O.3     1  UNL1       -0.3924
      7 O           6.8671    3.9050    0.0000 O.2     1  UNL1       -0.2957
      8 C           4.2690   -2.5950    0.0000 C.3     1  UNL1        0.1152
      9 C           3.4030   -2.0950    0.0000 C.3     1  UNL1        0.1120
     10 C           5.1350   -2.0950    0.0000 C.3     1  UNL1        0.1454
     11 C           3.4030   -1.0950    0.0000 C.3     1  UNL1        0.1140
     12 C           5.1350   -1.0950    0.0000 C.3     1  UNL1        0.2308
     13 C           2.5369   -0.5950    0.0000 C.3     1  UNL1        0.0731
     14 C           6.0010    0.4050    0.0000 C.ar    1  UNL1        0.1240
     15 C           6.8671    0.9050    0.0000 C.ar    1  UNL1       -0.0192
     16 C           5.1350    0.9050    0.0000 C.ar    1  UNL1       -0.0192
     17 C           6.8671    1.9050    0.0000 C.ar    1  UNL1       -0.0481
     18 C           5.1350    1.9050    0.0000 C.ar    1  UNL1       -0.0481
     19 C           6.0010    2.4050    0.0000 C.ar    1  UNL1        0.0144
     20 C           6.0010    3.4050    0.0000 C.2     1  UNL1        0.1502
     21 H           4.8059   -2.9050    0.0000 H       1  UNL1        0.0648
     22 H           3.4030   -2.7150    0.0000 H       1  UNL1        0.0647
     23 H           5.6720   -1.7850    0.0000 H       1  UNL1        0.0683
     24 H           3.4030   -0.4750    0.0000 H       1  UNL1        0.0647
     25 H           5.1350   -0.4750    0.0000 H       1  UNL1        0.1084
     26 H           1.9264   -0.4873    0.0000 H       1  UNL1        0.0584
     27 H           2.3249   -1.1776    0.0000 H       1  UNL1        0.0584
     28 H           3.7320   -3.9050    0.0000 H       1  UNL1        0.2100
     29 H           2.0000   -2.2850    0.0000 H       1  UNL1        0.2100
     30 H           6.5380   -2.2850    0.0000 H       1  UNL1        0.2102
     31 H           2.0000    0.7150    0.0000 H       1  UNL1        0.2095
     32 H           7.4040    0.5950    0.0000 H       1  UNL1        0.0654
     33 H           4.5981    0.5950    0.0000 H       1  UNL1        0.0654
     34 H           7.4040    2.2150    0.0000 H       1  UNL1        0.0626
     35 H           4.5981    2.2150    0.0000 H       1  UNL1        0.0626
     36 H           5.4641    3.7150    0.0000 H       1  UNL1        0.1081
@<TRIPOS>BOND
     1     1    11    1
     2     1    12    1
     3     8     2    1
     4     2    28    1
     5     9     3    1
     6     3    29    1
     7    12     4    1
     8     4    14    1
     9    10     5    1
    10     5    30    1
    11     6    13    1
    12     6    31    1
    13     7    20    2
    14     8     9    1
    15     8    10    1
    16     8    21    1
    17     9    11    1
    18     9    22    1
    19    10    12    1
    20    10    23    1
    21    11    13    1
    22    11    24    1
    23    12    25    1
    24    13    26    1
    25    13    27    1
    26    14    15   ar
    27    14    16   ar
    28    15    17   ar
    29    15    32    1
    30    16    18   ar
    31    16    33    1
    32    17    19   ar
    33    17    34    1
    34    18    19   ar
    35    18    35    1
    36    19    20    1
    37    20    36    1
