@<TRIPOS>MOLECULE
IMPHY013782
 24 24 0 0 0
SMALL
GASTEIGER

@<TRIPOS>ATOM
      1 C           3.7320    0.0000    0.0000 C.ar    1  UNL1       -0.0445
      2 C           4.5981    0.5000    0.0000 C.ar    1  UNL1       -0.0444
      3 C           2.8660    0.5000    0.0000 C.3     1  UNL1       -0.0303
      4 C           5.4641   -0.0000    0.0000 C.ar    1  UNL1       -0.0473
      5 C           3.7320   -1.0000    0.0000 C.ar    1  UNL1       -0.0583
      6 C           5.4641   -1.0000    0.0000 C.ar    1  UNL1       -0.0586
      7 C           4.5981    1.5000    0.0000 C.3     1  UNL1       -0.0392
      8 C           4.5981   -1.5000    0.0000 C.ar    1  UNL1       -0.0612
      9 C           2.0000    0.0000    0.0000 C.3     1  UNL1       -0.0613
     10 C           6.3301    0.5000    0.0000 C.3     1  UNL1       -0.0395
     11 H           3.2646    0.9749    0.0000 H       1  UNL1        0.0311
     12 H           2.4675    0.9749    0.0000 H       1  UNL1        0.0311
     13 H           3.1951   -1.3100    0.0000 H       1  UNL1        0.0620
     14 H           6.0010   -1.3100    0.0000 H       1  UNL1        0.0620
     15 H           5.2181    1.5000    0.0000 H       1  UNL1        0.0278
     16 H           4.5981    2.1200    0.0000 H       1  UNL1        0.0278
     17 H           3.9781    1.5000    0.0000 H       1  UNL1        0.0278
     18 H           4.5981   -2.1200    0.0000 H       1  UNL1        0.0618
     19 H           1.6900    0.5369    0.0000 H       1  UNL1        0.0233
     20 H           1.4631   -0.3100    0.0000 H       1  UNL1        0.0233
     21 H           2.3100   -0.5369    0.0000 H       1  UNL1        0.0233
     22 H           6.6401   -0.0369    0.0000 H       1  UNL1        0.0278
     23 H           6.8671    0.8100    0.0000 H       1  UNL1        0.0278
     24 H           6.0201    1.0369    0.0000 H       1  UNL1        0.0278
@<TRIPOS>BOND
     1     1     2   ar
     2     1     3    1
     3     1     5   ar
     4     2     4   ar
     5     2     7    1
     6     3     9    1
     7     3    11    1
     8     3    12    1
     9     4     6   ar
    10     4    10    1
    11     5     8   ar
    12     5    13    1
    13     6     8   ar
    14     6    14    1
    15     7    15    1
    16     7    16    1
    17     7    17    1
    18     8    18    1
    19     9    19    1
    20     9    20    1
    21     9    21    1
    22    10    22    1
    23    10    23    1
    24    10    24    1
