@<TRIPOS>MOLECULE
IMPHY014236
 28 30 0 0 0
SMALL
GASTEIGER

@<TRIPOS>ATOM
      1 O           4.6660   -0.9879    0.0000 O.2     1  UNL1       -0.4545
      2 O           8.1962   -1.0121    0.0000 O.3     1  UNL1       -0.4913
      3 O           4.6660    2.0121    0.0000 O.2     1  UNL1       -0.2864
      4 O           8.1962    1.0362    0.0000 O.3     1  UNL1       -0.5033
      5 C           5.5321    0.5121    0.0000 C.ar    1  UNL1        0.0683
      6 C           5.5321   -0.4879    0.0000 C.ar    1  UNL1        0.1430
      7 C           3.8000    0.5121    0.0000 C.ar    1  UNL1        0.0646
      8 C           4.6660    1.0121    0.0000 C.ar    1  UNL1        0.2003
      9 C           3.8000   -0.4879    0.0000 C.ar    1  UNL1        0.1393
     10 C           6.4260    1.0467    0.0000 C.ar    1  UNL1       -0.0022
     11 C           6.4260   -1.0226    0.0000 C.ar    1  UNL1        0.0267
     12 C           7.3321   -0.5087    0.0000 C.ar    1  UNL1        0.1648
     13 C           7.3321    0.5329    0.0000 C.ar    1  UNL1        0.1594
     14 C           2.9061    1.0467    0.0000 C.ar    1  UNL1       -0.0474
     15 C           2.9061   -1.0226    0.0000 C.ar    1  UNL1       -0.0186
     16 C           2.0000    0.5329    0.0000 C.ar    1  UNL1       -0.0609
     17 C           2.0000   -0.5087    0.0000 C.ar    1  UNL1       -0.0582
     18 C           8.1923   -2.0121    0.0000 C.3     1  UNL1        0.0790
     19 H           6.4188    1.6667    0.0000 H       1  UNL1        0.0663
     20 H           6.4188   -1.6426    0.0000 H       1  UNL1        0.0692
     21 H           2.9132    1.6667    0.0000 H       1  UNL1        0.0626
     22 H           2.9132   -1.6426    0.0000 H       1  UNL1        0.0654
     23 H           1.4643    0.8450    0.0000 H       1  UNL1        0.0618
     24 H           1.4643   -0.8208    0.0000 H       1  UNL1        0.0619
     25 H           8.1938    1.6562    0.0000 H       1  UNL1        0.2923
     26 H           7.5723   -2.0097    0.0000 H       1  UNL1        0.0660
     27 H           8.1899   -2.6321    0.0000 H       1  UNL1        0.0660
     28 H           8.8123   -2.0145    0.0000 H       1  UNL1        0.0660
@<TRIPOS>BOND
     1     1     6   ar
     2     1     9   ar
     3     2    12    1
     4     2    18    1
     5     3     8    2
     6     4    13    1
     7     4    25    1
     8     5     6   ar
     9     5     8   ar
    10     5    10   ar
    11     6    11   ar
    12     7     8   ar
    13     7     9   ar
    14     7    14   ar
    15     9    15   ar
    16    10    13   ar
    17    10    19    1
    18    11    12   ar
    19    11    20    1
    20    12    13   ar
    21    14    16   ar
    22    14    21    1
    23    15    17   ar
    24    15    22    1
    25    16    17   ar
    26    16    23    1
    27    17    24    1
    28    18    26    1
    29    18    27    1
    30    18    28    1
