@<TRIPOS>MOLECULE
IMPHY002595
 22 23 0 0 0
SMALL
GASTEIGER

@<TRIPOS>ATOM
      1 O           6.3580   -0.3970    0.0000 O.2     1  UNL1       -0.4183
      2 O           2.8660   -0.3623    0.0000 O.3     1  UNL1       -0.4913
      3 O           4.5981   -1.3623    0.0000 O.3     1  UNL1       -0.5009
      4 O           8.1282   -0.3865    0.0000 O.2     1  UNL1       -0.2452
      5 C           5.4641    1.1377    0.0000 C.ar    1  UNL1        0.0215
      6 C           5.4641    0.1377    0.0000 C.ar    1  UNL1        0.1839
      7 C           4.5981   -0.3623    0.0000 C.ar    1  UNL1        0.2024
      8 C           3.7320    0.1377    0.0000 C.ar    1  UNL1        0.1650
      9 C           4.5981    1.6377    0.0000 C.ar    1  UNL1       -0.0474
     10 C           3.7320    1.1377    0.0000 C.ar    1  UNL1       -0.0155
     11 C           6.3580    1.6723    0.0000 C.ar    1  UNL1       -0.0442
     12 C           7.2641    1.1585    0.0000 C.ar    1  UNL1        0.0236
     13 C           7.2641    0.1169    0.0000 C.ar    1  UNL1        0.3373
     14 C           2.0000    0.1377    0.0000 C.3     1  UNL1        0.0790
     15 H           4.5981    2.2577    0.0000 H       1  UNL1        0.0626
     16 H           3.1951    1.4477    0.0000 H       1  UNL1        0.0655
     17 H           6.3509    2.2923    0.0000 H       1  UNL1        0.0627
     18 H           7.7998    1.4706    0.0000 H       1  UNL1        0.0689
     19 H           4.0611   -1.6723    0.0000 H       1  UNL1        0.2924
     20 H           2.3100    0.6746    0.0000 H       1  UNL1        0.0660
     21 H           1.4631    0.4477    0.0000 H       1  UNL1        0.0660
     22 H           1.6900   -0.3993    0.0000 H       1  UNL1        0.0660
@<TRIPOS>BOND
     1     1     6   ar
     2     1    13   ar
     3     2     8    1
     4     2    14    1
     5     3     7    1
     6     3    19    1
     7     4    13    2
     8     5     6   ar
     9     5     9   ar
    10     5    11   ar
    11     6     7   ar
    12     7     8   ar
    13     8    10   ar
    14     9    10   ar
    15     9    15    1
    16    10    16    1
    17    11    12   ar
    18    11    17    1
    19    12    13   ar
    20    12    18    1
    21    14    20    1
    22    14    21    1
    23    14    22    1
