@<TRIPOS>MOLECULE
IMPHY012999
 51 51 0 0 0
SMALL
GASTEIGER

@<TRIPOS>ATOM
      1 O           4.2690   -1.3450    0.0000 O.3     1  UNL1       -0.3405
      2 O           6.0010   -1.3450    0.0000 O.3     1  UNL1       -0.3446
      3 O           4.2690   -4.3450    0.0000 O.3     1  UNL1       -0.3864
      4 O           2.5369   -3.3450    0.0000 O.3     1  UNL1       -0.3865
      5 O           6.0010   -3.3450    0.0000 O.3     1  UNL1       -0.3841
      6 O           2.5369   -0.3450    0.0000 O.3     1  UNL1       -0.3924
      7 O           8.5991    1.1550    0.0000 O.3     1  UNL1       -0.3872
      8 C           4.2690   -3.3450    0.0000 C.3     1  UNL1        0.1141
      9 C           3.4030   -2.8450    0.0000 C.3     1  UNL1        0.1119
     10 C           5.1350   -2.8450    0.0000 C.3     1  UNL1        0.1341
     11 C           3.4030   -1.8450    0.0000 C.3     1  UNL1        0.1130
     12 C           5.1350   -1.8450    0.0000 C.3     1  UNL1        0.1882
     13 C           2.5369   -1.3450    0.0000 C.3     1  UNL1        0.0730
     14 C           6.0010   -0.3450    0.0000 C.3     1  UNL1        0.0693
     15 C           6.8671    0.1550    0.0000 C.2     1  UNL1       -0.0572
     16 C           6.8671    1.1550    0.0000 C.2     1  UNL1       -0.0460
     17 C           7.7331    1.6550    0.0000 C.3     1  UNL1        0.0795
     18 C           7.7331    2.6550    0.0000 C.3     1  UNL1       -0.0045
     19 C           6.0010    1.6550    0.0000 C.3     1  UNL1       -0.0413
     20 C           8.5991    3.1550    0.0000 C.2     1  UNL1       -0.0825
     21 C           8.5991    4.1550    0.0000 C.2     1  UNL1       -0.0795
     22 C           9.4651    4.6550    0.0000 C.3     1  UNL1       -0.0440
     23 C           7.7331    4.6550    0.0000 C.3     1  UNL1       -0.0440
     24 H           3.7320   -3.6550    0.0000 H       1  UNL1        0.0648
     25 H           3.4030   -3.4650    0.0000 H       1  UNL1        0.0647
     26 H           5.1350   -3.4650    0.0000 H       1  UNL1        0.0671
     27 H           3.4030   -1.2250    0.0000 H       1  UNL1        0.0647
     28 H           5.1350   -1.2250    0.0000 H       1  UNL1        0.0938
     29 H           1.9264   -1.2373    0.0000 H       1  UNL1        0.0584
     30 H           2.3249   -1.9276    0.0000 H       1  UNL1        0.0584
     31 H           3.7320   -4.6550    0.0000 H       1  UNL1        0.2100
     32 H           2.0000   -3.0350    0.0000 H       1  UNL1        0.2100
     33 H           6.5380   -3.0350    0.0000 H       1  UNL1        0.2101
     34 H           5.7890    0.2376    0.0000 H       1  UNL1        0.0605
     35 H           5.3905   -0.4527    0.0000 H       1  UNL1        0.0605
     36 H           2.0000   -0.0350    0.0000 H       1  UNL1        0.2095
     37 H           7.4040   -0.1550    0.0000 H       1  UNL1        0.0595
     38 H           8.2700    1.9650    0.0000 H       1  UNL1        0.0643
     39 H           7.5210    3.2376    0.0000 H       1  UNL1        0.0336
     40 H           7.1225    2.5473    0.0000 H       1  UNL1        0.0336
     41 H           6.3110    2.1919    0.0000 H       1  UNL1        0.0275
     42 H           5.4641    1.9650    0.0000 H       1  UNL1        0.0275
     43 H           5.6910    1.1181    0.0000 H       1  UNL1        0.0275
     44 H           9.1360    2.8450    0.0000 H       1  UNL1        0.0572
     45 H           9.1360    1.4650    0.0000 H       1  UNL1        0.2102
     46 H           9.7751    4.1181    0.0000 H       1  UNL1        0.0274
     47 H          10.0021    4.9650    0.0000 H       1  UNL1        0.0274
     48 H           9.1551    5.1919    0.0000 H       1  UNL1        0.0274
     49 H           8.0431    5.1919    0.0000 H       1  UNL1        0.0274
     50 H           7.1962    4.9650    0.0000 H       1  UNL1        0.0274
     51 H           7.4231    4.1181    0.0000 H       1  UNL1        0.0274
@<TRIPOS>BOND
     1     1    11    1
     2     1    12    1
     3    12     2    1
     4     2    14    1
     5     8     3    1
     6     3    31    1
     7     9     4    1
     8     4    32    1
     9    10     5    1
    10     5    33    1
    11     6    13    1
    12     6    36    1
    13     7    17    1
    14     7    45    1
    15     8     9    1
    16     8    10    1
    17     8    24    1
    18     9    11    1
    19     9    25    1
    20    10    12    1
    21    10    26    1
    22    11    13    1
    23    11    27    1
    24    12    28    1
    25    13    29    1
    26    13    30    1
    27    14    15    1
    28    14    34    1
    29    14    35    1
    30    15    16    2
    31    15    37    1
    32    16    17    1
    33    16    19    1
    34    17    18    1
    35    17    38    1
    36    18    20    1
    37    18    39    1
    38    18    40    1
    39    19    41    1
    40    19    42    1
    41    19    43    1
    42    20    21    2
    43    20    44    1
    44    21    22    1
    45    21    23    1
    46    22    46    1
    47    22    47    1
    48    22    48    1
    49    23    49    1
    50    23    50    1
    51    23    51    1
