@<TRIPOS>MOLECULE
IMPHY008885
 40 43 0 0 0
SMALL
GASTEIGER

@<TRIPOS>ATOM
      1 O           2.0520    2.0037    0.0000 O.2     1  UNL1       -0.2670
      2 O           5.6405   -3.1332    0.0000 O.2     1  UNL1       -0.4913
      3 O           3.8372   -4.1930    0.0000 O.2     1  UNL1       -0.2840
      4 N           2.9180    0.5037    0.0000 N.ar    1  UNL1       -0.3072
      5 N           4.6660    3.5730    0.0000 N.pl3   1  UNL1       -0.3252
      6 C           2.0080   -0.0031    0.0000 C.3     1  UNL1        0.0307
      7 C           3.7841    0.0037    0.0000 C.ar    1  UNL1        0.0530
      8 C           2.0000   -1.0447    0.0000 C.3     1  UNL1       -0.0088
      9 C           3.8001   -1.0378    0.0000 C.2     1  UNL1        0.0055
     10 C           2.9021   -1.5655    0.0000 C.2     1  UNL1       -0.0327
     11 C           2.9180    1.5037    0.0000 C.ar    1  UNL1        0.2607
     12 C           4.6501    0.5037    0.0000 C.ar    1  UNL1       -0.0290
     13 C           4.6501    1.5037    0.0000 C.ar    1  UNL1       -0.0012
     14 C           3.7841    2.0037    0.0000 C.ar    1  UNL1        0.0610
     15 C           4.7520   -1.5584    0.0000 C.2     1  UNL1       -0.0068
     16 C           2.8937   -2.6505    0.0000 C.2     1  UNL1       -0.0074
     17 C           5.5601    2.0106    0.0000 C.2     1  UNL1       -0.0038
     18 C           4.7688   -2.6433    0.0000 C.2     1  UNL1        0.1671
     19 C           3.8334   -3.1930    0.0000 C.2     1  UNL1        0.2205
     20 C           3.7680    3.0452    0.0000 C.2     1  UNL1        0.0063
     21 C           5.5681    3.0522    0.0000 C.2     1  UNL1        0.0010
     22 C           6.4203    1.5006    0.0000 C.2     1  UNL1       -0.0599
     23 C           5.6521   -4.1332    0.0000 C.3     1  UNL1        0.0790
     24 C           7.2920    1.9906    0.0000 C.2     1  UNL1       -0.0981
     25 H           1.8035    0.5822    0.0000 H       1  UNL1        0.0496
     26 H           1.3964   -0.1045    0.0000 H       1  UNL1        0.0496
     27 H           1.3900   -0.9339    0.0000 H       1  UNL1        0.0331
     28 H           1.7864   -1.6268    0.0000 H       1  UNL1        0.0331
     29 H           5.1870    0.1937    0.0000 H       1  UNL1        0.0645
     30 H           5.2829   -1.2381    0.0000 H       1  UNL1        0.0662
     31 H           2.3556   -2.9584    0.0000 H       1  UNL1        0.0660
     32 H           3.2275    3.3490    0.0000 H       1  UNL1        0.0789
     33 H           6.1062    3.3601    0.0000 H       1  UNL1        0.0787
     34 H           4.6636    4.1930    0.0000 H       1  UNL1        0.1511
     35 H           6.4131    0.8806    0.0000 H       1  UNL1        0.0618
     36 H           5.0321   -4.1403    0.0000 H       1  UNL1        0.0660
     37 H           5.6592   -4.7531    0.0000 H       1  UNL1        0.0660
     38 H           6.2720   -4.1260    0.0000 H       1  UNL1        0.0660
     39 H           7.8253    1.6744    0.0000 H       1  UNL1        0.0535
     40 H           7.2992    2.6105    0.0000 H       1  UNL1        0.0535
@<TRIPOS>BOND
     1     1    11    2
     2     2    18    1
     3     2    23    1
     4     3    19    2
     5     4     6    1
     6     4     7   ar
     7     4    11   ar
     8     5    20    1
     9     5    21    1
    10     5    34    1
    11     6     8    1
    12     6    25    1
    13     6    26    1
    14     7     9    2
    15     7    12   ar
    16     8    10    1
    17     8    27    1
    18     8    28    1
    19     9    10    1
    20     9    15    1
    21    10    16    2
    22    11    14   ar
    23    12    13   ar
    24    12    29    1
    25    13    14   ar
    26    13    17    1
    27    14    20    2
    28    15    18    2
    29    15    30    1
    30    16    19    1
    31    16    31    1
    32    17    21    2
    33    17    22    1
    34    18    19    1
    35    20    32    1
    36    21    33    1
    37    22    24    2
    38    22    35    1
    39    23    36    1
    40    23    37    1
    41    23    38    1
    42    24    39    1
    43    24    40    1
