@<TRIPOS>MOLECULE
IMPHY013881
 27 28 0 0 0
SMALL
GASTEIGER

@<TRIPOS>ATOM
      1 CL          2.5293    0.0000    0.0000 Cl      1  UNL1       -0.1454
      2 O           5.3247    2.6550    0.0000 O.3     2  UNL2       -0.3841
      3 O           3.2018    6.4102    0.0000 O.2     2  UNL2       -0.2669
      4 N           4.0678    4.9102    0.0000 N.ar    2  UNL2       -0.2940
      5 N           3.2018    3.4102    0.0000 N.ar    2  UNL2       -0.2308
      6 C           5.5976    4.4102    0.0000 C.3     2  UNL2       -0.0016
      7 C           5.0140    3.6055    0.0000 C.3     2  UNL2        0.1145
      8 C           5.0140    5.2150    0.0000 C.3     2  UNL2        0.0306
      9 C           4.0678    3.9102    0.0000 C.ar    2  UNL2        0.1418
     10 C           3.2018    5.4102    0.0000 C.ar    2  UNL2        0.2619
     11 C           2.3358    4.9102    0.0000 C.ar    2  UNL2        0.0649
     12 C           2.3358    3.9102    0.0000 C.ar    2  UNL2        0.0783
     13 C           1.4418    5.4449    0.0000 C.ar    2  UNL2       -0.0474
     14 C           1.4418    3.3756    0.0000 C.ar    2  UNL2       -0.0355
     15 C           0.5357    4.9310    0.0000 C.ar    2  UNL2       -0.0609
     16 C           0.5357    3.8894    0.0000 C.ar    2  UNL2       -0.0597
     17 H           6.0585    3.9955    0.0000 H       2  UNL2        0.0312
     18 H           6.0585    4.8250    0.0000 H       2  UNL2        0.0312
     19 H           4.5766    3.1662    0.0000 H       2  UNL2        0.0675
     20 H           5.5514    5.5242    0.0000 H       2  UNL2        0.0494
     21 H           4.7630    5.7819    0.0000 H       2  UNL2        0.0494
     22 H           5.9314    2.5271    0.0000 H       2  UNL2        0.2104
     23 H           1.4490    6.0649    0.0000 H       2  UNL2        0.0626
     24 H           1.4490    2.7556    0.0000 H       2  UNL2        0.0639
     25 H           0.0000    5.2431    0.0000 H       2  UNL2        0.0618
     26 H           0.0000    3.5774    0.0000 H       2  UNL2        0.0618
     27 H           3.5292    0.0000    0.0000 H       1  UNL1        0.1454
@<TRIPOS>BOND
     1     1    27    1
     2     2     7    1
     3     2    22    1
     4     3    10    2
     5     4     8    1
     6     4     9   ar
     7     4    10   ar
     8     5     9   ar
     9     5    12   ar
    10     6     7    1
    11     6     8    1
    12     6    17    1
    13     6    18    1
    14     7     9    1
    15     7    19    1
    16     8    20    1
    17     8    21    1
    18    10    11   ar
    19    11    12   ar
    20    11    13   ar
    21    12    14   ar
    22    13    15   ar
    23    13    23    1
    24    14    16   ar
    25    14    24    1
    26    15    16   ar
    27    15    25    1
    28    16    26    1
