@<TRIPOS>MOLECULE
IMPHY004818
 21 22 0 0 0
SMALL
GASTEIGER

@<TRIPOS>ATOM
      1 N           3.6750    1.3184    0.0000 N.2     1  UNL1       -0.2876
      2 N           3.7320   -1.7694    0.0000 N.ar    1  UNL1       -0.2626
      3 C           2.0570    1.3184    0.0000 C.3     1  UNL1       -0.0085
      4 C           2.3660    2.2694    0.0000 C.3     1  UNL1       -0.0280
      5 C           2.8660    0.7306    0.0000 C.2     1  UNL1        0.0445
      6 C           3.3660    2.2694    0.0000 C.3     1  UNL1        0.0403
      7 C           2.8660   -0.2694    0.0000 C.ar    1  UNL1        0.0139
      8 C           2.0000   -0.7694    0.0000 C.ar    1  UNL1       -0.0500
      9 C           3.7320   -0.7694    0.0000 C.ar    1  UNL1        0.0364
     10 C           2.0000   -1.7694    0.0000 C.ar    1  UNL1       -0.0430
     11 C           2.8660   -2.2694    0.0000 C.ar    1  UNL1        0.0276
     12 H           1.4906    1.5705    0.0000 H       1  UNL1        0.0329
     13 H           1.7470    0.7814    0.0000 H       1  UNL1        0.0329
     14 H           2.4308    2.8860    0.0000 H       1  UNL1        0.0287
     15 H           1.7596    2.3983    0.0000 H       1  UNL1        0.0287
     16 H           3.9725    2.3983    0.0000 H       1  UNL1        0.0508
     17 H           3.3012    2.8860    0.0000 H       1  UNL1        0.0508
     18 H           1.4631   -0.4594    0.0000 H       1  UNL1        0.0625
     19 H           4.2690   -0.4594    0.0000 H       1  UNL1        0.0836
     20 H           1.4631   -2.0794    0.0000 H       1  UNL1        0.0633
     21 H           2.8660   -2.8894    0.0000 H       1  UNL1        0.0829
@<TRIPOS>BOND
     1     1     5    2
     2     1     6    1
     3     2     9   ar
     4     2    11   ar
     5     3     4    1
     6     3     5    1
     7     3    12    1
     8     3    13    1
     9     4     6    1
    10     4    14    1
    11     4    15    1
    12     5     7    1
    13     6    16    1
    14     6    17    1
    15     7     8   ar
    16     7     9   ar
    17     8    10   ar
    18     8    18    1
    19     9    19    1
    20    10    11   ar
    21    10    20    1
    22    11    21    1
