@<TRIPOS>MOLECULE
IMPHY000765
 48 51 0 0 0
SMALL
GASTEIGER

@<TRIPOS>ATOM
      1 O           6.3582    0.1005    0.0000 O.3     1  UNL1       -0.4826
      2 O           8.5022    2.1690    0.0000 O.3     1  UNL1       -0.4906
      3 O           7.7710   -1.2560    0.0000 O.3     1  UNL1       -0.4945
      4 O           2.8687    1.0048    0.0000 O.3     1  UNL1       -0.5064
      5 O          11.1418   -0.1752    0.0000 O.3     1  UNL1       -0.5065
      6 C           6.8550    1.6338    0.0000 C.3     1  UNL1        0.0631
      7 C           7.1640    0.6827    0.0000 C.3     1  UNL1        0.1419
      8 C           5.8609    1.6312    0.0000 C.ar    1  UNL1        0.0050
      9 C           7.5241    2.3769    0.0000 C.3     1  UNL1        0.1002
     10 C           8.1421    0.4748    0.0000 C.ar    1  UNL1        0.0767
     11 C           5.5545    0.6855    0.0000 C.ar    1  UNL1        0.1320
     12 C           8.8113    1.2180    0.0000 C.ar    1  UNL1        0.1342
     13 C           4.5453    0.4538    0.0000 C.ar    1  UNL1        0.0396
     14 C           5.1793    2.4107    0.0000 C.ar    1  UNL1       -0.0511
     15 C           8.4487   -0.5207    0.0000 C.ar    1  UNL1        0.1338
     16 C           3.8459    1.2173    0.0000 C.ar    1  UNL1        0.1238
     17 C           4.1650    2.2024    0.0000 C.ar    1  UNL1       -0.0194
     18 C           4.2482   -0.5011    0.0000 C.3     1  UNL1       -0.0023
     19 C           9.8334    1.0171    0.0000 C.ar    1  UNL1        0.0222
     20 C           9.4659   -0.7451    0.0000 C.ar    1  UNL1        0.0222
     21 C          10.1629    0.0290    0.0000 C.ar    1  UNL1        0.1238
     22 C           3.2727   -0.7211    0.0000 C.2     1  UNL1       -0.0807
     23 C           2.9755   -1.6759    0.0000 C.2     1  UNL1       -0.0793
     24 C           8.0690   -2.2106    0.0000 C.3     1  UNL1        0.0788
     25 C           2.0000   -1.8960    0.0000 C.3     1  UNL1       -0.0440
     26 C           3.6538   -2.4107    0.0000 C.3     1  UNL1       -0.0440
     27 H           6.5082    2.4098    0.0000 H       1  UNL1        0.0423
     28 H           7.3396   -0.1489    0.0000 H       1  UNL1        0.0794
     29 H           7.7564    2.9518    0.0000 H       1  UNL1        0.0704
     30 H           6.9983    2.7055    0.0000 H       1  UNL1        0.0704
     31 H           5.3772    2.9983    0.0000 H       1  UNL1        0.0623
     32 H           3.7515    2.6644    0.0000 H       1  UNL1        0.0654
     33 H           4.2775   -1.1204    0.0000 H       1  UNL1        0.0358
     34 H           4.8631   -0.5797    0.0000 H       1  UNL1        0.0358
     35 H          10.2429    1.4826    0.0000 H       1  UNL1        0.0691
     36 H           9.6552   -1.3355    0.0000 H       1  UNL1        0.0691
     37 H           2.8521   -0.2656    0.0000 H       1  UNL1        0.0575
     38 H           2.4517    1.4636    0.0000 H       1  UNL1        0.2921
     39 H           7.4772   -2.3954    0.0000 H       1  UNL1        0.0660
     40 H           8.2538   -2.8024    0.0000 H       1  UNL1        0.0660
     41 H           8.6608   -2.0258    0.0000 H       1  UNL1        0.0660
     42 H          11.5549    0.2872    0.0000 H       1  UNL1        0.2921
     43 H           1.8636   -1.2912    0.0000 H       1  UNL1        0.0274
     44 H           1.3952   -2.0324    0.0000 H       1  UNL1        0.0274
     45 H           2.1364   -2.5008    0.0000 H       1  UNL1        0.0274
     46 H           3.1982   -2.8313    0.0000 H       1  UNL1        0.0274
     47 H           4.0744   -2.8663    0.0000 H       1  UNL1        0.0274
     48 H           4.1094   -1.9902    0.0000 H       1  UNL1        0.0274
@<TRIPOS>BOND
     1     1     7    1
     2     1    11    1
     3     2     9    1
     4     2    12    1
     5     3    15    1
     6     3    24    1
     7     4    16    1
     8     4    38    1
     9     5    21    1
    10     5    42    1
    11     6     7    1
    12     6     8    1
    13     6     9    1
    14     6    27    1
    15     7    10    1
    16     7    28    1
    17     8    11   ar
    18     8    14   ar
    19     9    29    1
    20     9    30    1
    21    10    12   ar
    22    10    15   ar
    23    11    13   ar
    24    12    19   ar
    25    13    16   ar
    26    13    18    1
    27    14    17   ar
    28    14    31    1
    29    15    20   ar
    30    16    17   ar
    31    17    32    1
    32    18    22    1
    33    18    33    1
    34    18    34    1
    35    19    21   ar
    36    19    35    1
    37    20    21   ar
    38    20    36    1
    39    22    23    2
    40    22    37    1
    41    23    25    1
    42    23    26    1
    43    24    39    1
    44    24    40    1
    45    24    41    1
    46    25    43    1
    47    25    44    1
    48    25    45    1
    49    26    46    1
    50    26    47    1
    51    26    48    1
