@<TRIPOS>MOLECULE
IMPHY015712
 38 40 0 0 0
SMALL
GASTEIGER

@<TRIPOS>ATOM
      1 O           4.0140   -2.8333    0.0000 O.2     1  UNL1       -0.3007
      2 C           3.8660   -0.1667    0.0000 C.3     1  UNL1        0.0013
      3 C           3.0000    0.3333    0.0000 C.3     1  UNL1       -0.0254
      4 C           3.0000    1.3333    0.0000 C.3     1  UNL1       -0.0224
      5 C           3.8660    1.8333    0.0000 C.3     1  UNL1       -0.0086
      6 C           4.7320    0.3333    0.0000 C.3     1  UNL1       -0.0422
      7 C           3.6568   -1.1385    0.0000 C.3     1  UNL1        0.0238
      8 C           4.7320    1.3333    0.0000 C.3     1  UNL1       -0.0429
      9 C           2.2630   -0.3338    0.0000 C.3     1  UNL1       -0.0482
     10 C           2.6681   -1.2416    0.0000 C.3     1  UNL1       -0.0427
     11 C           3.4660    0.4333    0.0000 C.2     1  UNL1       -0.0803
     12 C           3.4660    1.2333    0.0000 C.2     1  UNL1       -0.0809
     13 C           2.5000    2.1993    0.0000 C.3     1  UNL1       -0.0588
     14 C           2.0000    1.3333    0.0000 C.3     1  UNL1       -0.0588
     15 C           3.8660    2.8333    0.0000 C.3     1  UNL1       -0.0556
     16 C           4.3247   -1.8828    0.0000 C.2     1  UNL1        0.1242
     17 H           2.4333    0.5848    0.0000 H       1  UNL1        0.0315
     18 H           4.9441   -0.2493    0.0000 H       1  UNL1        0.0274
     19 H           5.3426    0.4410    0.0000 H       1  UNL1        0.0274
     20 H           4.2560   -0.9793    0.0000 H       1  UNL1        0.0383
     21 H           5.3426    1.2257    0.0000 H       1  UNL1        0.0274
     22 H           4.9441    1.9159    0.0000 H       1  UNL1        0.0274
     23 H           1.8976    0.1671    0.0000 H       1  UNL1        0.0269
     24 H           1.7265   -0.6445    0.0000 H       1  UNL1        0.0269
     25 H           2.0785   -1.4333    0.0000 H       1  UNL1        0.0272
     26 H           2.7968   -1.8480    0.0000 H       1  UNL1        0.0272
     27 H           2.8726    0.2537    0.0000 H       1  UNL1        0.0575
     28 H           2.8726    1.4130    0.0000 H       1  UNL1        0.0575
     29 H           3.0369    2.5093    0.0000 H       1  UNL1        0.0235
     30 H           2.1900    2.7363    0.0000 H       1  UNL1        0.0235
     31 H           1.9631    1.8893    0.0000 H       1  UNL1        0.0235
     32 H           2.0000    1.9533    0.0000 H       1  UNL1        0.0235
     33 H           1.3800    1.3333    0.0000 H       1  UNL1        0.0235
     34 H           2.0000    0.7133    0.0000 H       1  UNL1        0.0235
     35 H           4.4860    2.8333    0.0000 H       1  UNL1        0.0238
     36 H           3.8660    3.4533    0.0000 H       1  UNL1        0.0238
     37 H           3.2460    2.8333    0.0000 H       1  UNL1        0.0238
     38 H           4.9313   -1.7549    0.0000 H       1  UNL1        0.1029
@<TRIPOS>BOND
     1     1    16    2
     2     2     3    1
     3     2     6    1
     4     2     7    1
     5     2    11    1
     6     3     4    1
     7     3     9    1
     8     3    17    1
     9     4     5    1
    10     4    13    1
    11     4    14    1
    12     5     8    1
    13     5    12    1
    14     5    15    1
    15     6     8    1
    16     6    18    1
    17     6    19    1
    18     7    10    1
    19     7    16    1
    20     7    20    1
    21     8    21    1
    22     8    22    1
    23     9    10    1
    24     9    23    1
    25     9    24    1
    26    10    25    1
    27    10    26    1
    28    11    12    2
    29    11    27    1
    30    12    28    1
    31    13    29    1
    32    13    30    1
    33    13    31    1
    34    14    32    1
    35    14    33    1
    36    14    34    1
    37    15    35    1
    38    15    36    1
    39    15    37    1
    40    16    38    1
