@<TRIPOS>MOLECULE
IMPHY010601
 52 53 0 0 0
SMALL
GASTEIGER

@<TRIPOS>ATOM
      1 O           5.4641   -0.1123    0.0000 O.3     1  UNL1       -0.4581
      2 O           6.3301   -2.6123    0.0000 O.3     1  UNL1       -0.3855
      3 O           8.9561    0.8530    0.0000 O.2     1  UNL1       -0.4218
      4 O           5.4641    0.8877    0.0000 O.3     1  UNL1       -0.4947
      5 O           4.5981   -1.6123    0.0000 O.2     1  UNL1       -0.2508
      6 O          10.7263    0.8635    0.0000 O.2     1  UNL1       -0.2452
      7 C           6.3301   -0.6123    0.0000 C.3     1  UNL1        0.1352
      8 C           6.3301   -1.6123    0.0000 C.3     1  UNL1        0.0975
      9 C           7.1962   -0.1123    0.0000 C.3     1  UNL1        0.0193
     10 C           7.1962    0.8877    0.0000 C.ar    1  UNL1        0.0407
     11 C           5.3301   -1.6123    0.0000 C.3     1  UNL1       -0.0328
     12 C           7.3301   -1.6123    0.0000 C.3     1  UNL1       -0.0328
     13 C           8.0622    1.3877    0.0000 C.ar    1  UNL1        0.1458
     14 C           6.3301    1.3877    0.0000 C.ar    1  UNL1        0.1269
     15 C           3.7320   -0.1123    0.0000 C.3     1  UNL1        0.0473
     16 C           2.8660   -0.6123    0.0000 C.3     1  UNL1       -0.0367
     17 C           4.5981   -0.6123    0.0000 C.2     1  UNL1        0.3077
     18 C           8.0622    2.3877    0.0000 C.ar    1  UNL1        0.0181
     19 C           6.3301    2.3877    0.0000 C.ar    1  UNL1       -0.0189
     20 C           7.1962    2.8877    0.0000 C.ar    1  UNL1       -0.0476
     21 C           2.0000   -0.1123    0.0000 C.3     1  UNL1       -0.0622
     22 C           2.8660   -1.6123    0.0000 C.3     1  UNL1       -0.0622
     23 C           8.9561    2.9223    0.0000 C.ar    1  UNL1       -0.0443
     24 C           9.8622    1.3668    0.0000 C.ar    1  UNL1        0.3372
     25 C           9.8622    2.4085    0.0000 C.ar    1  UNL1        0.0236
     26 C           4.5981    1.3877    0.0000 C.3     1  UNL1        0.0788
     27 H           5.7932   -0.9223    0.0000 H       1  UNL1        0.0766
     28 H           7.4082   -0.6949    0.0000 H       1  UNL1        0.0352
     29 H           7.8067   -0.0047    0.0000 H       1  UNL1        0.0352
     30 H           7.3301   -2.2323    0.0000 H       1  UNL1        0.0258
     31 H           7.9501   -1.6123    0.0000 H       1  UNL1        0.0258
     32 H           7.3301   -0.9923    0.0000 H       1  UNL1        0.0258
     33 H           5.3301   -0.9923    0.0000 H       1  UNL1        0.0258
     34 H           4.7101   -1.6123    0.0000 H       1  UNL1        0.0258
     35 H           5.3301   -2.2323    0.0000 H       1  UNL1        0.0258
     36 H           4.1306    0.3626    0.0000 H       1  UNL1        0.0380
     37 H           3.3335    0.3626    0.0000 H       1  UNL1        0.0380
     38 H           6.8671   -2.9223    0.0000 H       1  UNL1        0.2103
     39 H           2.8660    0.0077    0.0000 H       1  UNL1        0.0301
     40 H           5.7932    2.6977    0.0000 H       1  UNL1        0.0654
     41 H           7.1962    3.5077    0.0000 H       1  UNL1        0.0626
     42 H           2.2460   -1.6123    0.0000 H       1  UNL1        0.0232
     43 H           2.3100    0.4246    0.0000 H       1  UNL1        0.0232
     44 H           1.4631    0.1977    0.0000 H       1  UNL1        0.0232
     45 H           1.6900   -0.6493    0.0000 H       1  UNL1        0.0232
     46 H           2.8660   -2.2323    0.0000 H       1  UNL1        0.0232
     47 H           3.4860   -1.6123    0.0000 H       1  UNL1        0.0232
     48 H           8.9490    3.5423    0.0000 H       1  UNL1        0.0627
     49 H          10.3979    2.7205    0.0000 H       1  UNL1        0.0689
     50 H           4.9081    1.9246    0.0000 H       1  UNL1        0.0660
     51 H           4.0611    1.6977    0.0000 H       1  UNL1        0.0660
     52 H           4.2881    0.8507    0.0000 H       1  UNL1        0.0660
@<TRIPOS>BOND
     1     7     1    1
     2     1    17    1
     3     2     8    1
     4     2    38    1
     5     3    13   ar
     6     3    24   ar
     7     4    14    1
     8     4    26    1
     9     5    17    2
    10     6    24    2
    11     7     8    1
    12     7     9    1
    13     7    27    1
    14     8    11    1
    15     8    12    1
    16     9    10    1
    17     9    28    1
    18     9    29    1
    19    10    13   ar
    20    10    14   ar
    21    11    33    1
    22    11    34    1
    23    11    35    1
    24    12    30    1
    25    12    31    1
    26    12    32    1
    27    13    18   ar
    28    14    19   ar
    29    15    16    1
    30    15    17    1
    31    15    36    1
    32    15    37    1
    33    16    21    1
    34    16    22    1
    35    16    39    1
    36    18    20   ar
    37    18    23   ar
    38    19    20   ar
    39    19    40    1
    40    20    41    1
    41    21    43    1
    42    21    44    1
    43    21    45    1
    44    22    42    1
    45    22    46    1
    46    22    47    1
    47    23    25   ar
    48    23    48    1
    49    24    25   ar
    50    25    49    1
    51    26    50    1
    52    26    51    1
    53    26    52    1
