@<TRIPOS>MOLECULE
IMPHY005968
 49 50 0 0 0
SMALL
GASTEIGER

@<TRIPOS>ATOM
      1 O           4.9344   -0.1005    0.0000 O.3     1  UNL1       -0.4561
      2 O           8.4299    0.1009    0.0000 O.3     1  UNL1       -0.4568
      3 O           3.2872   -0.6358    0.0000 O.2     1  UNL1       -0.2453
      4 O           8.0727    1.7957    0.0000 O.2     1  UNL1       -0.2452
      5 O          11.3654    0.7195    0.0000 O.3     1  UNL1       -0.3902
      6 N           6.1945   -2.3606    0.0000 N.3     1  UNL1       -0.2886
      7 C           6.1945   -1.3606    0.0000 C.3     1  UNL1        0.0723
      8 C           5.2435   -1.0516    0.0000 C.3     1  UNL1        0.1239
      9 C           4.6557   -1.8606    0.0000 C.3     1  UNL1       -0.0010
     10 C           5.2435   -2.6696    0.0000 C.3     1  UNL1        0.0033
     11 C           7.1407   -1.0559    0.0000 C.2     1  UNL1       -0.0147
     12 C           7.1407   -2.6653    0.0000 C.3     1  UNL1        0.0182
     13 C           7.7244   -1.8606    0.0000 C.2     1  UNL1       -0.0660
     14 C           7.4514   -0.1053    0.0000 C.3     1  UNL1        0.1155
     15 C           3.9563    0.1074    0.0000 C.2     1  UNL1        0.3349
     16 C           3.6473    1.0584    0.0000 C.2     1  UNL1        0.0293
     17 C           8.7406    1.0514    0.0000 C.2     1  UNL1        0.3374
     18 C           4.3164    1.8016    0.0000 C.3     1  UNL1       -0.0333
     19 C           2.6691    1.2664    0.0000 C.2     1  UNL1       -0.0774
     20 C           9.7191    1.2576    0.0000 C.2     1  UNL1        0.0575
     21 C          10.3869    0.5133    0.0000 C.3     1  UNL1        0.0756
     22 C           2.0000    0.5232    0.0000 C.3     1  UNL1       -0.0461
     23 C          10.0297    2.2081    0.0000 C.2     1  UNL1       -0.0749
     24 C          11.0082    2.4144    0.0000 C.3     1  UNL1       -0.0460
     25 H           6.1956   -0.5106    0.0000 H       1  UNL1        0.0547
     26 H           4.4039   -0.9186    0.0000 H       1  UNL1        0.0753
     27 H           4.1949   -1.4457    0.0000 H       1  UNL1        0.0314
     28 H           4.1949   -2.2755    0.0000 H       1  UNL1        0.0314
     29 H           4.7065   -2.9796    0.0000 H       1  UNL1        0.0428
     30 H           5.4956   -3.2360    0.0000 H       1  UNL1        0.0428
     31 H           6.8897   -3.2322    0.0000 H       1  UNL1        0.0470
     32 H           7.6781   -2.9745    0.0000 H       1  UNL1        0.0470
     33 H           8.3444   -1.8606    0.0000 H       1  UNL1        0.0586
     34 H           7.4308    0.5143    0.0000 H       1  UNL1        0.0746
     35 H           6.8376   -0.0180    0.0000 H       1  UNL1        0.0746
     36 H           4.7772    1.3867    0.0000 H       1  UNL1        0.0280
     37 H           4.7313    2.2624    0.0000 H       1  UNL1        0.0280
     38 H           3.8557    2.2165    0.0000 H       1  UNL1        0.0280
     39 H           2.4775    1.8560    0.0000 H       1  UNL1        0.0574
     40 H           9.8606    0.1857    0.0000 H       1  UNL1        0.0609
     41 H          10.6182   -0.0619    0.0000 H       1  UNL1        0.0609
     42 H           1.5392    0.9381    0.0000 H       1  UNL1        0.0272
     43 H           1.5851    0.0625    0.0000 H       1  UNL1        0.0272
     44 H           2.4608    0.1084    0.0000 H       1  UNL1        0.0272
     45 H           9.6157    2.6696    0.0000 H       1  UNL1        0.0575
     46 H          11.1361    1.8077    0.0000 H       1  UNL1        0.0272
     47 H          11.6149    2.5422    0.0000 H       1  UNL1        0.0272
     48 H          10.8804    3.0210    0.0000 H       1  UNL1        0.0272
     49 H          11.7795    0.2581    0.0000 H       1  UNL1        0.2099
@<TRIPOS>BOND
     1     1     8    1
     2     1    15    1
     3     2    14    1
     4     2    17    1
     5     3    15    2
     6     4    17    2
     7     5    21    1
     8     5    49    1
     9     6     7    1
    10     6    10    1
    11     6    12    1
    12     7     8    1
    13     7    11    1
    14     7    25    1
    15     8     9    1
    16     8    26    1
    17     9    10    1
    18     9    27    1
    19     9    28    1
    20    10    29    1
    21    10    30    1
    22    11    13    2
    23    11    14    1
    24    12    13    1
    25    12    31    1
    26    12    32    1
    27    13    33    1
    28    14    34    1
    29    14    35    1
    30    15    16    1
    31    16    18    1
    32    16    19    2
    33    17    20    1
    34    18    36    1
    35    18    37    1
    36    18    38    1
    37    19    22    1
    38    19    39    1
    39    20    21    1
    40    20    23    2
    41    21    40    1
    42    21    41    1
    43    22    42    1
    44    22    43    1
    45    22    44    1
    46    23    24    1
    47    23    45    1
    48    24    46    1
    49    24    47    1
    50    24    48    1
