@<TRIPOS>MOLECULE
IMPHY005124
 160 169 0 0 0
SMALL
GASTEIGER

@<TRIPOS>ATOM
      1 O           7.4216    0.1945    0.0000 O.3     1  UNL1       -0.3639
      2 O           8.2623    3.7670    0.0000 O.3     1  UNL1       -0.3912
      3 O           4.6173    2.7360    0.0000 O.3     1  UNL1       -0.4568
      4 O          13.6382   -2.4259    0.0000 O.3     1  UNL1       -0.3448
      5 O          12.7546    0.8911    0.0000 O.3     1  UNL1       -0.3944
      6 O           4.0132    0.2688    0.0000 O.2     1  UNL1       -0.3003
      7 O          14.5042   -0.9259    0.0000 O.3     1  UNL1       -0.3460
      8 O           5.4717    4.2427    0.0000 O.2     1  UNL1       -0.2449
      9 O          15.3703   -3.4259    0.0000 O.3     1  UNL1       -0.3378
     10 O          17.1023   -2.4259    0.0000 O.3     1  UNL1       -0.3864
     11 O          17.1023   -0.4259    0.0000 O.3     1  UNL1       -0.3405
     12 O          13.6382   -3.4259    0.0000 O.3     1  UNL1       -0.3405
     13 O          15.3703   -5.4259    0.0000 O.3     1  UNL1       -0.3841
     14 O          16.2363    1.0741    0.0000 O.3     1  UNL1       -0.3405
     15 O          13.6382   -6.4259    0.0000 O.3     1  UNL1       -0.3864
     16 O          11.9062   -5.4259    0.0000 O.3     1  UNL1       -0.3865
     17 O          18.8344    0.5741    0.0000 O.3     1  UNL1       -0.3841
     18 O          18.8344    2.5741    0.0000 O.3     1  UNL1       -0.3864
     19 O          11.0401   -3.9259    0.0000 O.3     1  UNL1       -0.3924
     20 O          17.1023    3.5741    0.0000 O.3     1  UNL1       -0.3865
     21 O          15.3703    3.5741    0.0000 O.3     1  UNL1       -0.3924
     22 N           4.5941    5.7360    0.0000 N.pl3   1  UNL1       -0.3463
     23 C           8.2862    0.6978    0.0000 C.3     1  UNL1        0.1053
     24 C           9.1503    1.2012    0.0000 C.3     1  UNL1        0.0077
     25 C          10.0182    0.7045    0.0000 C.3     1  UNL1       -0.0205
     26 C           8.2900   -0.3021    0.0000 C.3     1  UNL1        0.0895
     27 C          10.0221   -0.2955    0.0000 C.3     1  UNL1       -0.0269
     28 C           7.3742    1.2012    0.0000 C.3     1  UNL1       -0.0000
     29 C           9.1580   -0.7988    0.0000 C.3     1  UNL1       -0.0200
     30 C          10.9181   -0.8267    0.0000 C.3     1  UNL1       -0.0251
     31 C           7.3622    2.2427    0.0000 C.3     1  UNL1        0.0028
     32 C           9.1623    2.2427    0.0000 C.3     1  UNL1       -0.0177
     33 C          10.9101    1.2426    0.0000 C.3     1  UNL1       -0.0465
     34 C          11.8222   -0.3093    0.0000 C.3     1  UNL1       -0.0255
     35 C           8.2623    2.7670    0.0000 C.3     1  UNL1        0.0617
     36 C           6.4496    0.6335    0.0000 C.3     1  UNL1       -0.0316
     37 C           9.7901    1.9697    0.0000 C.3     1  UNL1       -0.0562
     38 C          11.8181    0.7323    0.0000 C.3     1  UNL1       -0.0485
     39 C          10.3566    1.6455    0.0000 C.3     1  UNL1       -0.0587
     40 C           6.4247    2.7889    0.0000 C.3     1  UNL1       -0.0066
     41 C          12.7680   -0.8409    0.0000 C.3     1  UNL1        0.0206
     42 C          10.8972   -1.9115    0.0000 C.3     1  UNL1       -0.0447
     43 C           5.4997    1.1578    0.0000 C.3     1  UNL1        0.0604
     44 C           5.4871    2.2427    0.0000 C.3     1  UNL1        0.1157
     45 C          10.0501   -1.3233    0.0000 C.3     1  UNL1       -0.0590
     46 C           7.3506    3.2427    0.0000 C.3     1  UNL1       -0.0567
     47 C          12.7722   -1.9259    0.0000 C.3     1  UNL1        0.0695
     48 C          11.8305   -2.4648    0.0000 C.3     1  UNL1       -0.0254
     49 C          13.2613    0.0289    0.0000 C.3     1  UNL1        0.0522
     50 C          13.7680   -0.8332    0.0000 C.3     1  UNL1       -0.0548
     51 C           5.0131    0.2842    0.0000 C.3     1  UNL1       -0.0497
     52 C           4.4998    1.1424    0.0000 C.2     1  UNL1        0.1297
     53 C          14.5042   -1.9259    0.0000 C.3     1  UNL1        0.1882
     54 C           4.6096    3.7360    0.0000 C.2     1  UNL1        0.3413
     55 C          15.3703   -2.4259    0.0000 C.3     1  UNL1        0.1406
     56 C           3.7397    4.2293    0.0000 C.ar    1  UNL1        0.0797
     57 C          16.2363   -1.9259    0.0000 C.3     1  UNL1        0.1144
     58 C          15.3703   -0.4259    0.0000 C.3     1  UNL1        0.0796
     59 C          16.2363   -0.9259    0.0000 C.3     1  UNL1        0.1135
     60 C           3.7320    5.2293    0.0000 C.ar    1  UNL1        0.0410
     61 C           2.8776    3.7227    0.0000 C.ar    1  UNL1       -0.0460
     62 C          14.5042   -3.9259    0.0000 C.3     1  UNL1        0.1885
     63 C           2.8622    5.7226    0.0000 C.ar    1  UNL1       -0.0401
     64 C           2.0077    4.2160    0.0000 C.ar    1  UNL1       -0.0609
     65 C          14.5042   -4.9259    0.0000 C.3     1  UNL1        0.1341
     66 C           2.0000    5.2160    0.0000 C.ar    1  UNL1       -0.0600
     67 C          17.1023    0.5741    0.0000 C.3     1  UNL1        0.1884
     68 C          13.6382   -5.4259    0.0000 C.3     1  UNL1        0.1141
     69 C          12.7722   -3.9259    0.0000 C.3     1  UNL1        0.1130
     70 C           4.5864    6.7359    0.0000 C.3     1  UNL1       -0.0024
     71 C          12.7722   -4.9259    0.0000 C.3     1  UNL1        0.1119
     72 C          17.9683    1.0741    0.0000 C.3     1  UNL1        0.1341
     73 C          17.9683    2.0741    0.0000 C.3     1  UNL1        0.1141
     74 C          11.9062   -3.4259    0.0000 C.3     1  UNL1        0.0730
     75 C          16.2363    2.0741    0.0000 C.3     1  UNL1        0.1130
     76 C          17.1023    2.5741    0.0000 C.3     1  UNL1        0.1119
     77 C          15.3703    2.5741    0.0000 C.3     1  UNL1        0.0730
     78 H           7.9822   -0.8403    0.0000 H       1  UNL1        0.0625
     79 H          10.5602    0.0125    0.0000 H       1  UNL1        0.0312
     80 H           7.9063    1.5194    0.0000 H       1  UNL1        0.0336
     81 H           8.7613   -1.2753    0.0000 H       1  UNL1        0.0294
     82 H           9.5584   -1.2722    0.0000 H       1  UNL1        0.0294
     83 H           9.7719    2.1296    0.0000 H       1  UNL1        0.0297
     84 H           9.3781    2.8240    0.0000 H       1  UNL1        0.0297
     85 H          11.3019    1.7232    0.0000 H       1  UNL1        0.0271
     86 H          10.5037    1.7108    0.0000 H       1  UNL1        0.0271
     87 H          12.3567    0.0048    0.0000 H       1  UNL1        0.0313
     88 H           8.7998    3.0760    0.0000 H       1  UNL1        0.0599
     89 H           6.0615    0.1500    0.0000 H       1  UNL1        0.0279
     90 H           6.8596    0.1685    0.0000 H       1  UNL1        0.0279
     91 H          10.2666    1.5730    0.0000 H       1  UNL1        0.0236
     92 H          10.1868    2.4462    0.0000 H       1  UNL1        0.0236
     93 H           9.3136    2.3664    0.0000 H       1  UNL1        0.0236
     94 H          12.4294    0.6285    0.0000 H       1  UNL1        0.0268
     95 H          12.0249    1.3168    0.0000 H       1  UNL1        0.0268
     96 H          10.9400    1.4357    0.0000 H       1  UNL1        0.0235
     97 H          10.5664    2.2290    0.0000 H       1  UNL1        0.0235
     98 H           9.7732    1.8553    0.0000 H       1  UNL1        0.0235
     99 H           6.8238    3.2633    0.0000 H       1  UNL1        0.0307
    100 H           6.0255    3.2633    0.0000 H       1  UNL1        0.0307
    101 H          10.2885   -1.7936    0.0000 H       1  UNL1        0.0271
    102 H          10.6769   -2.4910    0.0000 H       1  UNL1        0.0271
    103 H           4.9532    1.9276    0.0000 H       1  UNL1        0.0744
    104 H           9.7422   -0.7852    0.0000 H       1  UNL1        0.0235
    105 H           9.5120   -1.6313    0.0000 H       1  UNL1        0.0235
    106 H          10.3581   -1.8615    0.0000 H       1  UNL1        0.0235
    107 H           7.9706    3.2498    0.0000 H       1  UNL1        0.0236
    108 H           7.3435    3.8626    0.0000 H       1  UNL1        0.0236
    109 H           6.7307    3.2355    0.0000 H       1  UNL1        0.0236
    110 H          13.3085   -1.6149    0.0000 H       1  UNL1        0.0603
    111 H          11.4277   -2.9362    0.0000 H       1  UNL1        0.0290
    112 H          12.2259   -2.9423    0.0000 H       1  UNL1        0.0290
    113 H           8.7992    4.0770    0.0000 H       1  UNL1        0.2098
    114 H          13.7393   -0.3659    0.0000 H       1  UNL1        0.0563
    115 H          13.7332    0.4311    0.0000 H       1  UNL1        0.0563
    116 H          13.7727   -1.4532    0.0000 H       1  UNL1        0.0237
    117 H          14.3880   -0.8285    0.0000 H       1  UNL1        0.0237
    118 H          13.7632   -0.2133    0.0000 H       1  UNL1        0.0237
    119 H           4.4714    0.5859    0.0000 H       1  UNL1        0.0240
    120 H           4.7114   -0.2575    0.0000 H       1  UNL1        0.0240
    121 H           5.5547   -0.0175    0.0000 H       1  UNL1        0.0240
    122 H           4.1816    1.6745    0.0000 H       1  UNL1        0.1033
    123 H          13.0605    1.4304    0.0000 H       1  UNL1        0.2094
    124 H          13.9673   -1.6159    0.0000 H       1  UNL1        0.0937
    125 H          15.9072   -2.7359    0.0000 H       1  UNL1        0.0675
    126 H          16.7732   -1.6159    0.0000 H       1  UNL1        0.0648
    127 H          15.7688    0.0490    0.0000 H       1  UNL1        0.0587
    128 H          14.9717    0.0490    0.0000 H       1  UNL1        0.0587
    129 H          16.2363   -0.3059    0.0000 H       1  UNL1        0.0647
    130 H           2.8823    3.1027    0.0000 H       1  UNL1        0.0626
    131 H          14.5042   -3.3059    0.0000 H       1  UNL1        0.0938
    132 H          17.6392   -2.1159    0.0000 H       1  UNL1        0.2100
    133 H           2.8574    6.3426    0.0000 H       1  UNL1        0.0636
    134 H           1.4732    3.9018    0.0000 H       1  UNL1        0.0618
    135 H           5.1334    5.4301    0.0000 H       1  UNL1        0.1458
    136 H          14.5042   -5.5459    0.0000 H       1  UNL1        0.0671
    137 H           1.4607    5.5218    0.0000 H       1  UNL1        0.0618
    138 H          16.5654    0.2641    0.0000 H       1  UNL1        0.0938
    139 H          13.1013   -5.7359    0.0000 H       1  UNL1        0.0648
    140 H          12.7722   -3.3059    0.0000 H       1  UNL1        0.0647
    141 H           5.2064    6.7407    0.0000 H       1  UNL1        0.0425
    142 H           4.5817    7.3559    0.0000 H       1  UNL1        0.0425
    143 H           3.9664    6.7312    0.0000 H       1  UNL1        0.0425
    144 H          12.2352   -4.6159    0.0000 H       1  UNL1        0.0647
    145 H          17.9683    0.4541    0.0000 H       1  UNL1        0.0671
    146 H          15.9072   -5.1159    0.0000 H       1  UNL1        0.2101
    147 H          17.9683    2.6941    0.0000 H       1  UNL1        0.0648
    148 H          12.3047   -2.9510    0.0000 H       1  UNL1        0.0584
    149 H          11.5076   -2.9510    0.0000 H       1  UNL1        0.0584
    150 H          15.6993    1.7641    0.0000 H       1  UNL1        0.0647
    151 H          16.5654    2.8841    0.0000 H       1  UNL1        0.0647
    152 H          14.1751   -6.7359    0.0000 H       1  UNL1        0.2100
    153 H          11.9062   -6.0459    0.0000 H       1  UNL1        0.2100
    154 H          19.3713    0.8841    0.0000 H       1  UNL1        0.2101
    155 H          14.7597    2.6817    0.0000 H       1  UNL1        0.0584
    156 H          15.1582    1.9915    0.0000 H       1  UNL1        0.0584
    157 H          18.8344    3.1941    0.0000 H       1  UNL1        0.2100
    158 H          10.5032   -3.6159    0.0000 H       1  UNL1        0.2095
    159 H          17.6392    3.8841    0.0000 H       1  UNL1        0.2100
    160 H          14.8333    3.8841    0.0000 H       1  UNL1        0.2095
@<TRIPOS>BOND
     1     1    23    1
     2     1    26    1
     3     2    35    1
     4     2   113    1
     5     3    44    1
     6     3    54    1
     7     4    47    1
     8     4    53    1
     9     5    49    1
    10     5   123    1
    11     6    52    2
    12     7    53    1
    13     7    58    1
    14     8    54    2
    15     9    55    1
    16     9    62    1
    17    10    57    1
    18    10   132    1
    19    11    59    1
    20    11    67    1
    21    12    62    1
    22    12    69    1
    23    13    65    1
    24    13   146    1
    25    14    67    1
    26    14    75    1
    27    15    68    1
    28    15   152    1
    29    16    71    1
    30    16   153    1
    31    17    72    1
    32    17   154    1
    33    18    73    1
    34    18   157    1
    35    19    74    1
    36    19   158    1
    37    20    76    1
    38    20   159    1
    39    21    77    1
    40    21   160    1
    41    22    60    1
    42    22    70    1
    43    22   135    1
    44    23    24    1
    45    23    26    1
    46    23    28    1
    47    24    25    1
    48    24    32    1
    49    24    37    1
    50    25    27    1
    51    25    33    1
    52    25    39    1
    53    26    29    1
    54    26    78    1
    55    27    29    1
    56    27    30    1
    57    27    79    1
    58    28    31    1
    59    28    36    1
    60    28    80    1
    61    29    81    1
    62    29    82    1
    63    30    34    1
    64    30    42    1
    65    30    45    1
    66    31    35    1
    67    31    40    1
    68    31    46    1
    69    32    35    1
    70    32    83    1
    71    32    84    1
    72    33    38    1
    73    33    85    1
    74    33    86    1
    75    34    38    1
    76    34    41    1
    77    34    87    1
    78    35    88    1
    79    36    43    1
    80    36    89    1
    81    36    90    1
    82    37    91    1
    83    37    92    1
    84    37    93    1
    85    38    94    1
    86    38    95    1
    87    39    96    1
    88    39    97    1
    89    39    98    1
    90    40    44    1
    91    40    99    1
    92    40   100    1
    93    41    47    1
    94    41    49    1
    95    41    50    1
    96    42    48    1
    97    42   101    1
    98    42   102    1
    99    43    44    1
   100    43    51    1
   101    43    52    1
   102    44   103    1
   103    45   104    1
   104    45   105    1
   105    45   106    1
   106    46   107    1
   107    46   108    1
   108    46   109    1
   109    47    48    1
   110    47   110    1
   111    48   111    1
   112    48   112    1
   113    49   114    1
   114    49   115    1
   115    50   116    1
   116    50   117    1
   117    50   118    1
   118    51   119    1
   119    51   120    1
   120    51   121    1
   121    52   122    1
   122    53    55    1
   123    53   124    1
   124    54    56    1
   125    55    57    1
   126    55   125    1
   127    56    60   ar
   128    56    61   ar
   129    57    59    1
   130    57   126    1
   131    58    59    1
   132    58   127    1
   133    58   128    1
   134    59   129    1
   135    60    63   ar
   136    61    64   ar
   137    61   130    1
   138    62    65    1
   139    62   131    1
   140    63    66   ar
   141    63   133    1
   142    64    66   ar
   143    64   134    1
   144    65    68    1
   145    65   136    1
   146    66   137    1
   147    67    72    1
   148    67   138    1
   149    68    71    1
   150    68   139    1
   151    69    71    1
   152    69    74    1
   153    69   140    1
   154    70   141    1
   155    70   142    1
   156    70   143    1
   157    71   144    1
   158    72    73    1
   159    72   145    1
   160    73    76    1
   161    73   147    1
   162    74   148    1
   163    74   149    1
   164    75    76    1
   165    75    77    1
   166    75   150    1
   167    76   151    1
   168    77   155    1
   169    77   156    1
