@<TRIPOS>MOLECULE
IMPHY008044
 53 56 0 0 0
SMALL
GASTEIGER

@<TRIPOS>ATOM
      1 O           5.1350    0.5127    0.0000 O.3     1  UNL1       -0.3609
      2 O           6.8671    2.5127    0.0000 O.3     1  UNL1       -0.3862
      3 O           5.1350    3.5127    0.0000 O.3     1  UNL1       -0.3865
      4 O           3.4030    2.5127    0.0000 O.3     1  UNL1       -0.3865
      5 O           2.5369    1.0127    0.0000 O.3     1  UNL1       -0.3924
      6 O           7.7331    2.0127    0.0000 O.3     1  UNL1       -0.5054
      7 O           6.0010   -0.9873    0.0000 O.3     1  UNL1       -0.5062
      8 O           9.4931   -1.0220    0.0000 O.2     1  UNL1       -0.4544
      9 O           9.4815    2.0473    0.0000 O.2     1  UNL1       -0.2869
     10 O          13.8632   -0.5215    0.0000 O.3     1  UNL1       -0.5032
     11 O          12.1196   -3.5148    0.0000 O.3     1  UNL1       -0.5032
     12 O          13.8555   -2.5215    0.0000 O.3     1  UNL1       -0.5009
     13 C           6.0010    2.0127    0.0000 C.3     1  UNL1        0.1139
     14 C           5.1350    2.5127    0.0000 C.3     1  UNL1        0.1121
     15 C           6.0010    1.0127    0.0000 C.3     1  UNL1        0.1193
     16 C           4.2690    2.0127    0.0000 C.3     1  UNL1        0.1117
     17 C           4.2690    1.0127    0.0000 C.3     1  UNL1        0.1108
     18 C           6.8671    0.5127    0.0000 C.ar    1  UNL1        0.0673
     19 C           3.4030    0.5127    0.0000 C.3     1  UNL1        0.0729
     20 C           7.7331    1.0127    0.0000 C.ar    1  UNL1        0.1404
     21 C           6.8671   -0.4873    0.0000 C.ar    1  UNL1        0.1296
     22 C           8.5991    0.5127    0.0000 C.ar    1  UNL1        0.1058
     23 C           7.7331   -0.9873    0.0000 C.ar    1  UNL1        0.0235
     24 C           8.5991   -0.4873    0.0000 C.ar    1  UNL1        0.1463
     25 C           9.4931    1.0474    0.0000 C.ar    1  UNL1        0.1966
     26 C          10.3991   -0.5081    0.0000 C.ar    1  UNL1        0.1395
     27 C          10.3991    0.5335    0.0000 C.ar    1  UNL1        0.0288
     28 C          11.2632   -1.0114    0.0000 C.ar    1  UNL1        0.0245
     29 C          11.2594   -2.0114    0.0000 C.ar    1  UNL1       -0.0056
     30 C          12.1312   -0.5148    0.0000 C.ar    1  UNL1       -0.0056
     31 C          12.9953   -1.0181    0.0000 C.ar    1  UNL1        0.1626
     32 C          12.1235   -2.5148    0.0000 C.ar    1  UNL1        0.1626
     33 C          12.9914   -2.0181    0.0000 C.ar    1  UNL1        0.2006
     34 H           6.5380    1.7027    0.0000 H       1  UNL1        0.0649
     35 H           5.6720    2.8227    0.0000 H       1  UNL1        0.0647
     36 H           6.0010    0.1627    0.0000 H       1  UNL1        0.0676
     37 H           4.2690    2.6327    0.0000 H       1  UNL1        0.0647
     38 H           4.2690    0.3927    0.0000 H       1  UNL1        0.0646
     39 H           3.0044    0.0378    0.0000 H       1  UNL1        0.0584
     40 H           3.8015    0.0378    0.0000 H       1  UNL1        0.0584
     41 H           6.8671    3.1327    0.0000 H       1  UNL1        0.2100
     42 H           4.5981    3.8227    0.0000 H       1  UNL1        0.2100
     43 H           3.4030    3.1327    0.0000 H       1  UNL1        0.2100
     44 H           7.7331   -1.6073    0.0000 H       1  UNL1        0.0691
     45 H           2.0000    0.7027    0.0000 H       1  UNL1        0.2095
     46 H           8.2700    2.3227    0.0000 H       1  UNL1        0.2922
     47 H           6.0010   -1.6073    0.0000 H       1  UNL1        0.2922
     48 H          10.9349    0.8456    0.0000 H       1  UNL1        0.0693
     49 H          10.7212   -2.3194    0.0000 H       1  UNL1        0.0662
     50 H          12.1336    0.1052    0.0000 H       1  UNL1        0.0662
     51 H          13.8656    0.0985    0.0000 H       1  UNL1        0.2923
     52 H          11.5815   -3.8227    0.0000 H       1  UNL1        0.2923
     53 H          14.3936   -2.2135    0.0000 H       1  UNL1        0.2924
@<TRIPOS>BOND
     1     1    15    1
     2     1    17    1
     3     2    13    1
     4     2    41    1
     5    14     3    1
     6     3    42    1
     7    16     4    1
     8     4    43    1
     9     5    19    1
    10     5    45    1
    11     6    20    1
    12     6    46    1
    13     7    21    1
    14     7    47    1
    15     8    24   ar
    16     8    26   ar
    17     9    25    2
    18    10    31    1
    19    10    51    1
    20    11    32    1
    21    11    52    1
    22    12    33    1
    23    12    53    1
    24    13    14    1
    25    13    15    1
    26    13    34    1
    27    14    16    1
    28    14    35    1
    29    15    18    1
    30    15    36    1
    31    16    17    1
    32    16    37    1
    33    17    19    1
    34    17    38    1
    35    18    20   ar
    36    18    21   ar
    37    19    39    1
    38    19    40    1
    39    20    22   ar
    40    21    23   ar
    41    22    24   ar
    42    22    25   ar
    43    23    24   ar
    44    23    44    1
    45    25    27   ar
    46    26    27   ar
    47    26    28    1
    48    27    48    1
    49    28    29   ar
    50    28    30   ar
    51    29    32   ar
    52    29    49    1
    53    30    31   ar
    54    30    50    1
    55    31    33   ar
    56    32    33   ar
