@<TRIPOS>MOLECULE
IMPHY014169
 58 60 0 0 0
SMALL
GASTEIGER

@<TRIPOS>ATOM
      1 O           6.3981    0.1419    0.0000 O.3     1  UNL1       -0.4804
      2 O           8.1465   -2.8927    0.0000 O.3     1  UNL1       -0.5056
      3 O           9.9282    0.1661    0.0000 O.3     1  UNL1       -0.5051
      4 O           7.2747    1.6665    0.0000 O.2     1  UNL1       -0.2918
      5 O           9.9243   -2.8822    0.0000 O.2     1  UNL1       -0.2955
      6 C           5.5320   -1.3581    0.0000 C.3     1  UNL1        0.0071
      7 C           5.5320   -0.3581    0.0000 C.3     1  UNL1        0.1291
      8 C           4.6381   -1.8927    0.0000 C.3     1  UNL1       -0.0395
      9 C           3.7320   -1.3789    0.0000 C.3     1  UNL1       -0.0201
     10 C           6.3981   -1.8581    0.0000 C.3     1  UNL1       -0.0139
     11 C           4.6381    0.1766    0.0000 C.2     1  UNL1       -0.0447
     12 C           2.8680   -1.8822    0.0000 C.3     1  UNL1       -0.0404
     13 C           3.7320   -0.3372    0.0000 C.2     1  UNL1       -0.0809
     14 C           7.2641   -1.3581    0.0000 C.ar    1  UNL1        0.0377
     15 C           5.5320    0.6419    0.0000 C.3     1  UNL1       -0.0209
     16 C           7.2641   -0.3581    0.0000 C.ar    1  UNL1        0.1424
     17 C           2.0000   -1.3856    0.0000 C.3     1  UNL1       -0.0621
     18 C           2.8718   -2.8822    0.0000 C.3     1  UNL1       -0.0621
     19 C           8.1580   -1.8927    0.0000 C.ar    1  UNL1        0.1372
     20 C           8.1580    0.1766    0.0000 C.ar    1  UNL1        0.1015
     21 C           9.0641   -1.3789    0.0000 C.ar    1  UNL1        0.0980
     22 C           9.0641   -0.3372    0.0000 C.ar    1  UNL1        0.1446
     23 C           8.1465    1.1765    0.0000 C.2     1  UNL1        0.1705
     24 C           9.0067    1.6865    0.0000 C.3     1  UNL1        0.0130
     25 C           8.9951    2.6864    0.0000 C.3     1  UNL1       -0.0397
     26 C           9.9282   -1.8822    0.0000 C.2     1  UNL1        0.1573
     27 C           9.8553    3.1964    0.0000 C.3     1  UNL1       -0.0623
     28 C           8.1234    3.1764    0.0000 C.3     1  UNL1       -0.0623
     29 H           5.5386   -2.2080    0.0000 H       1  UNL1        0.0346
     30 H           4.2445   -2.3717    0.0000 H       1  UNL1        0.0275
     31 H           5.0427   -2.3625    0.0000 H       1  UNL1        0.0275
     32 H           3.7356   -1.9989    0.0000 H       1  UNL1        0.0346
     33 H           5.9995   -2.3330    0.0000 H       1  UNL1        0.0320
     34 H           6.7966   -2.3330    0.0000 H       1  UNL1        0.0320
     35 H           4.6453    0.7966    0.0000 H       1  UNL1        0.0608
     36 H           2.3322   -2.1943    0.0000 H       1  UNL1        0.0301
     37 H           3.1963   -0.0252    0.0000 H       1  UNL1        0.0573
     38 H           6.1520    0.6419    0.0000 H       1  UNL1        0.0271
     39 H           5.5320    1.2619    0.0000 H       1  UNL1        0.0271
     40 H           4.9120    0.6419    0.0000 H       1  UNL1        0.0271
     41 H           2.3079   -0.8474    0.0000 H       1  UNL1        0.0233
     42 H           1.4619   -1.0776    0.0000 H       1  UNL1        0.0233
     43 H           1.6921   -1.9237    0.0000 H       1  UNL1        0.0233
     44 H           2.2518   -2.8846    0.0000 H       1  UNL1        0.0233
     45 H           2.8742   -3.5022    0.0000 H       1  UNL1        0.0233
     46 H           3.4918   -2.8798    0.0000 H       1  UNL1        0.0233
     47 H           9.2254    1.1064    0.0000 H       1  UNL1        0.0348
     48 H           9.6160    1.8012    0.0000 H       1  UNL1        0.0348
     49 H           7.6060   -3.1964    0.0000 H       1  UNL1        0.2922
     50 H           8.9879    3.3064    0.0000 H       1  UNL1        0.0300
     51 H          10.4663   -1.5743    0.0000 H       1  UNL1        0.1084
     52 H          10.4663   -0.1418    0.0000 H       1  UNL1        0.2922
     53 H          10.1715    2.6631    0.0000 H       1  UNL1        0.0232
     54 H          10.3886    3.5126    0.0000 H       1  UNL1        0.0232
     55 H           9.5391    3.7297    0.0000 H       1  UNL1        0.0232
     56 H           8.4271    3.7169    0.0000 H       1  UNL1        0.0232
     57 H           7.5829    3.4802    0.0000 H       1  UNL1        0.0232
     58 H           7.8196    2.6359    0.0000 H       1  UNL1        0.0232
@<TRIPOS>BOND
     1     1     7    1
     2     1    16    1
     3     2    19    1
     4     2    49    1
     5     3    22    1
     6     3    52    1
     7     4    23    2
     8     5    26    2
     9     6     7    1
    10     6     8    1
    11     6    10    1
    12     6    29    1
    13     7    11    1
    14     7    15    1
    15     8     9    1
    16     8    30    1
    17     8    31    1
    18     9    12    1
    19     9    13    1
    20     9    32    1
    21    10    14    1
    22    10    33    1
    23    10    34    1
    24    11    13    2
    25    11    35    1
    26    12    17    1
    27    12    18    1
    28    12    36    1
    29    13    37    1
    30    14    16   ar
    31    14    19   ar
    32    15    38    1
    33    15    39    1
    34    15    40    1
    35    16    20   ar
    36    17    41    1
    37    17    42    1
    38    17    43    1
    39    18    44    1
    40    18    45    1
    41    18    46    1
    42    19    21   ar
    43    20    22   ar
    44    20    23    1
    45    21    22   ar
    46    21    26    1
    47    23    24    1
    48    24    25    1
    49    24    47    1
    50    24    48    1
    51    25    27    1
    52    25    28    1
    53    25    50    1
    54    26    51    1
    55    27    53    1
    56    27    54    1
    57    27    55    1
    58    28    56    1
    59    28    57    1
    60    28    58    1
