@<TRIPOS>MOLECULE
IMPHY011340
 83 87 0 0 0
SMALL
GASTEIGER

@<TRIPOS>ATOM
      1 O          10.1603    4.9746    0.0000 O.3     1  UNL1       -0.3872
      2 O           9.7942    1.6085    0.0000 O.3     1  UNL1       -0.3363
      3 O           8.5374    4.8638    0.0000 O.2     1  UNL1       -0.2963
      4 O           8.0622    1.6085    0.0000 O.3     1  UNL1       -0.3384
      5 O           9.7942   -0.3915    0.0000 O.3     1  UNL1       -0.4536
      6 O           8.0622   -1.3915    0.0000 O.3     1  UNL1       -0.3842
      7 O           6.3301   -0.3915    0.0000 O.3     1  UNL1       -0.4528
      8 O           5.4641    1.1085    0.0000 O.3     1  UNL1       -0.3923
      9 O          10.6603    1.1085    0.0000 O.2     1  UNL1       -0.2512
     10 O           7.1962   -1.8915    0.0000 O.2     1  UNL1       -0.2456
     11 O           2.0000   -4.8915    0.0000 O.3     1  UNL1       -0.5068
     12 C          11.5263    3.6085    0.0000 C.3     1  UNL1        0.0209
     13 C          10.6603    4.1085    0.0000 C.3     1  UNL1        0.0850
     14 C           9.7942    3.6085    0.0000 C.3     1  UNL1        0.0799
     15 C          12.5263    3.6085    0.0000 C.3     1  UNL1       -0.0401
     16 C          12.0263    4.4746    0.0000 C.3     1  UNL1       -0.0401
     17 C           9.7942    2.6085    0.0000 C.3     1  UNL1        0.1040
     18 C          11.5263    2.6085    0.0000 C.2     1  UNL1       -0.0649
     19 C           8.8480    2.3038    0.0000 C.3     1  UNL1       -0.0074
     20 C           8.2644    3.1085    0.0000 C.3     1  UNL1        0.0268
     21 C          10.6603    2.1085    0.0000 C.2     1  UNL1       -0.0521
     22 C           8.8480    3.9132    0.0000 C.2     1  UNL1        0.1479
     23 C          11.1603    4.9746    0.0000 C.3     1  UNL1       -0.0345
     24 C          12.3923    2.1085    0.0000 C.3     1  UNL1       -0.0431
     25 C           7.4554    3.6963    0.0000 C.3     1  UNL1       -0.0530
     26 C           7.4554    2.5207    0.0000 C.3     1  UNL1       -0.0530
     27 C           8.9282    1.1085    0.0000 C.3     1  UNL1        0.2002
     28 C           8.9282    0.1085    0.0000 C.3     1  UNL1        0.1827
     29 C           8.0622   -0.3915    0.0000 C.3     1  UNL1        0.1361
     30 C           7.1962    1.1085    0.0000 C.3     1  UNL1        0.1241
     31 C           7.1962    0.1085    0.0000 C.3     1  UNL1        0.1609
     32 C           6.3301    1.6085    0.0000 C.3     1  UNL1        0.0741
     33 C          10.6603    0.1085    0.0000 C.2     1  UNL1        0.3044
     34 C           6.3301   -1.3915    0.0000 C.2     1  UNL1        0.3324
     35 C          11.5263   -0.3915    0.0000 C.3     1  UNL1        0.0332
     36 C           5.4641   -1.8915    0.0000 C.2     1  UNL1        0.0231
     37 C           5.4641   -2.8915    0.0000 C.2     1  UNL1       -0.0478
     38 C           4.5981   -3.3915    0.0000 C.ar    1  UNL1       -0.0246
     39 C           3.7320   -2.8915    0.0000 C.ar    1  UNL1       -0.0511
     40 C           4.5981   -4.3915    0.0000 C.ar    1  UNL1       -0.0511
     41 C           2.8660   -3.3915    0.0000 C.ar    1  UNL1       -0.0196
     42 C           3.7320   -4.8915    0.0000 C.ar    1  UNL1       -0.0196
     43 C           2.8660   -4.3915    0.0000 C.ar    1  UNL1        0.1169
     44 H           9.7286    4.2250    0.0000 H       1  UNL1        0.0438
     45 H          12.5012    4.8731    0.0000 H       1  UNL1        0.0275
     46 H          12.6339    2.9979    0.0000 H       1  UNL1        0.0275
     47 H          11.5513    4.8731    0.0000 H       1  UNL1        0.0275
     48 H          13.1089    3.8206    0.0000 H       1  UNL1        0.0275
     49 H           8.3106    1.9946    0.0000 H       1  UNL1        0.0306
     50 H           9.0990    1.7369    0.0000 H       1  UNL1        0.0306
     51 H          10.6603    1.4885    0.0000 H       1  UNL1        0.0600
     52 H          11.6972    4.6646    0.0000 H       1  UNL1        0.0258
     53 H          11.4703    5.5115    0.0000 H       1  UNL1        0.0258
     54 H          10.6233    5.2845    0.0000 H       1  UNL1        0.0258
     55 H          10.4703    5.5115    0.0000 H       1  UNL1        0.2102
     56 H          12.0823    1.5716    0.0000 H       1  UNL1        0.0275
     57 H          12.9292    1.7985    0.0000 H       1  UNL1        0.0275
     58 H          12.7023    2.6455    0.0000 H       1  UNL1        0.0275
     59 H           7.0910    3.0223    0.0000 H       1  UNL1        0.0239
     60 H           6.9538    2.1563    0.0000 H       1  UNL1        0.0239
     61 H           7.8198    2.0191    0.0000 H       1  UNL1        0.0239
     62 H           7.8198    4.1979    0.0000 H       1  UNL1        0.0239
     63 H           6.9538    4.0607    0.0000 H       1  UNL1        0.0239
     64 H           7.0910    3.1947    0.0000 H       1  UNL1        0.0239
     65 H           9.4651    0.7985    0.0000 H       1  UNL1        0.0950
     66 H           8.9282   -0.5115    0.0000 H       1  UNL1        0.0813
     67 H           7.5252   -0.7015    0.0000 H       1  UNL1        0.0670
     68 H           7.1962    1.7285    0.0000 H       1  UNL1        0.0658
     69 H           6.6592    0.4185    0.0000 H       1  UNL1        0.0789
     70 H           6.7286    2.0835    0.0000 H       1  UNL1        0.0584
     71 H           5.9316    2.0835    0.0000 H       1  UNL1        0.0584
     72 H           8.5991   -1.7015    0.0000 H       1  UNL1        0.2101
     73 H           4.9272    1.4185    0.0000 H       1  UNL1        0.2095
     74 H          11.2163   -0.9284    0.0000 H       1  UNL1        0.0342
     75 H          12.0632   -0.7015    0.0000 H       1  UNL1        0.0342
     76 H          11.8363    0.1455    0.0000 H       1  UNL1        0.0342
     77 H           4.9272   -1.5815    0.0000 H       1  UNL1        0.0689
     78 H           6.0010   -3.2015    0.0000 H       1  UNL1        0.0626
     79 H           3.7320   -2.2715    0.0000 H       1  UNL1        0.0625
     80 H           5.1350   -4.7015    0.0000 H       1  UNL1        0.0625
     81 H           2.3291   -3.0815    0.0000 H       1  UNL1        0.0654
     82 H           3.7320   -5.5115    0.0000 H       1  UNL1        0.0654
     83 H           2.0000   -5.5115    0.0000 H       1  UNL1        0.2921
@<TRIPOS>BOND
     1     1    13    1
     2     1    55    1
     3     2    17    1
     4    27     2    1
     5     3    22    2
     6     4    27    1
     7     4    30    1
     8    28     5    1
     9     5    33    1
    10    29     6    1
    11     6    72    1
    12    31     7    1
    13     7    34    1
    14     8    32    1
    15     8    73    1
    16     9    33    2
    17    10    34    2
    18    11    43    1
    19    11    83    1
    20    12    13    1
    21    12    15    1
    22    12    16    1
    23    12    18    1
    24    13    14    1
    25    13    23    1
    26    14    17    1
    27    14    22    1
    28    14    44    1
    29    15    16    1
    30    15    46    1
    31    15    48    1
    32    16    45    1
    33    16    47    1
    34    17    19    1
    35    17    21    1
    36    18    21    2
    37    18    24    1
    38    19    20    1
    39    19    49    1
    40    19    50    1
    41    20    22    1
    42    20    25    1
    43    20    26    1
    44    21    51    1
    45    23    52    1
    46    23    53    1
    47    23    54    1
    48    24    56    1
    49    24    57    1
    50    24    58    1
    51    25    62    1
    52    25    63    1
    53    25    64    1
    54    26    59    1
    55    26    60    1
    56    26    61    1
    57    27    28    1
    58    27    65    1
    59    28    29    1
    60    28    66    1
    61    29    31    1
    62    29    67    1
    63    30    31    1
    64    30    32    1
    65    30    68    1
    66    31    69    1
    67    32    70    1
    68    32    71    1
    69    33    35    1
    70    34    36    1
    71    35    74    1
    72    35    75    1
    73    35    76    1
    74    36    37    2
    75    36    77    1
    76    37    38    1
    77    37    78    1
    78    38    39   ar
    79    38    40   ar
    80    39    41   ar
    81    39    79    1
    82    40    42   ar
    83    40    80    1
    84    41    43   ar
    85    41    81    1
    86    42    43   ar
    87    42    82    1
