@<TRIPOS>MOLECULE
IMPHY012935
 45 46 0 0 0
SMALL
GASTEIGER

@<TRIPOS>ATOM
      1 O           5.1350   -0.3450    0.0000 O.3     1  UNL1       -0.3405
      2 O           6.8671   -0.3450    0.0000 O.3     1  UNL1       -0.3381
      3 O           5.1350   -3.3450    0.0000 O.3     1  UNL1       -0.3864
      4 O           6.8671   -2.3450    0.0000 O.3     1  UNL1       -0.3841
      5 O           3.4030   -2.3450    0.0000 O.3     1  UNL1       -0.3865
      6 O           5.1350    0.6550    0.0000 O.3     1  UNL1       -0.3860
      7 O           5.1350    2.6550    0.0000 O.3     1  UNL1       -0.3731
      8 O           2.5369   -0.8450    0.0000 O.3     1  UNL1       -0.3924
      9 N           8.5991   -1.3450    0.0000 N.1     1  UNL1       -0.1915
     10 C           5.1350   -2.3450    0.0000 C.3     1  UNL1        0.1141
     11 C           6.0010   -1.8450    0.0000 C.3     1  UNL1        0.1341
     12 C           4.2690   -1.8450    0.0000 C.3     1  UNL1        0.1119
     13 C           6.0010   -0.8450    0.0000 C.3     1  UNL1        0.1887
     14 C           4.2690   -0.8450    0.0000 C.3     1  UNL1        0.1130
     15 C           6.8671    0.6550    0.0000 C.3     1  UNL1        0.1159
     16 C           6.0010    1.1550    0.0000 C.3     1  UNL1        0.1151
     17 C           3.4030   -0.3450    0.0000 C.3     1  UNL1        0.0730
     18 C           6.0010    2.1550    0.0000 C.3     1  UNL1        0.1053
     19 C           7.7331    1.1550    0.0000 C.2     1  UNL1       -0.0063
     20 C           6.8671    2.6550    0.0000 C.2     1  UNL1       -0.0527
     21 C           7.7331    2.1550    0.0000 C.2     1  UNL1       -0.0568
     22 C           8.5991    0.6550    0.0000 C.2     1  UNL1        0.0211
     23 C           5.1350    3.6550    0.0000 C.3     1  UNL1        0.0373
     24 C           8.5991   -0.3450    0.0000 C.1     1  UNL1        0.0917
     25 H           4.5981   -2.6550    0.0000 H       1  UNL1        0.0648
     26 H           6.0010   -2.4650    0.0000 H       1  UNL1        0.0671
     27 H           4.2690   -2.4650    0.0000 H       1  UNL1        0.0647
     28 H           6.0010   -0.2250    0.0000 H       1  UNL1        0.0938
     29 H           4.2690   -0.2250    0.0000 H       1  UNL1        0.0647
     30 H           7.4040    0.3450    0.0000 H       1  UNL1        0.0674
     31 H           6.0010    0.5350    0.0000 H       1  UNL1        0.0652
     32 H           3.8015    0.1299    0.0000 H       1  UNL1        0.0584
     33 H           3.0044    0.1299    0.0000 H       1  UNL1        0.0584
     34 H           6.0010    2.7750    0.0000 H       1  UNL1        0.0667
     35 H           4.5981   -3.6550    0.0000 H       1  UNL1        0.2100
     36 H           6.8671   -2.9650    0.0000 H       1  UNL1        0.2101
     37 H           6.8671    3.2750    0.0000 H       1  UNL1        0.0598
     38 H           3.4030   -2.9650    0.0000 H       1  UNL1        0.2100
     39 H           8.2700    2.4650    0.0000 H       1  UNL1        0.0619
     40 H           4.5981    0.9650    0.0000 H       1  UNL1        0.2100
     41 H           9.1360    0.9650    0.0000 H       1  UNL1        0.0736
     42 H           2.0000   -0.5350    0.0000 H       1  UNL1        0.2095
     43 H           5.7550    3.6550    0.0000 H       1  UNL1        0.0524
     44 H           5.1350    4.2750    0.0000 H       1  UNL1        0.0524
     45 H           4.5150    3.6550    0.0000 H       1  UNL1        0.0524
@<TRIPOS>BOND
     1     1    13    1
     2     1    14    1
     3    13     2    1
     4    15     2    1
     5    10     3    1
     6     3    35    1
     7    11     4    1
     8     4    36    1
     9    12     5    1
    10     5    38    1
    11    16     6    1
    12     6    40    1
    13    18     7    1
    14     7    23    1
    15     8    17    1
    16     8    42    1
    17     9    24    3
    18    10    11    1
    19    10    12    1
    20    10    25    1
    21    11    13    1
    22    11    26    1
    23    12    14    1
    24    12    27    1
    25    13    28    1
    26    14    17    1
    27    14    29    1
    28    15    16    1
    29    15    19    1
    30    15    30    1
    31    16    18    1
    32    16    31    1
    33    17    32    1
    34    17    33    1
    35    18    20    1
    36    18    34    1
    37    19    21    1
    38    19    22    2
    39    20    21    2
    40    20    37    1
    41    21    39    1
    42    22    24    1
    43    22    41    1
    44    23    43    1
    45    23    44    1
    46    23    45    1
