@<TRIPOS>MOLECULE
IMPHY014072
 31 31 0 0 0
SMALL
GASTEIGER

@<TRIPOS>ATOM
      1 O           4.5981    1.3450    0.0000 O.3     1  UNL1       -0.4589
      2 O           6.3301    2.3450    0.0000 O.3     1  UNL1       -0.3861
      3 O           6.3301    4.3450    0.0000 O.3     1  UNL1       -0.3923
      4 O           2.8660   -4.6550    0.0000 O.3     1  UNL1       -0.5068
      5 O           2.8660    1.3450    0.0000 O.2     1  UNL1       -0.2456
      6 C           5.4641    2.8450    0.0000 C.3     1  UNL1        0.1122
      7 C           4.5981    2.3450    0.0000 C.3     1  UNL1        0.1207
      8 C           5.4641    3.8450    0.0000 C.3     1  UNL1        0.0733
      9 C           2.8660   -1.6550    0.0000 C.ar    1  UNL1       -0.0246
     10 C           2.8660   -0.6550    0.0000 C.2     1  UNL1       -0.0478
     11 C           3.7320    0.8450    0.0000 C.2     1  UNL1        0.3320
     12 C           3.7320   -2.1550    0.0000 C.ar    1  UNL1       -0.0511
     13 C           2.0000   -2.1550    0.0000 C.ar    1  UNL1       -0.0511
     14 C           3.7320   -0.1550    0.0000 C.2     1  UNL1        0.0231
     15 C           3.7320   -3.1550    0.0000 C.ar    1  UNL1       -0.0196
     16 C           2.0000   -3.1550    0.0000 C.ar    1  UNL1       -0.0196
     17 C           2.8660   -3.6550    0.0000 C.ar    1  UNL1        0.1169
     18 H           5.4641    2.2250    0.0000 H       1  UNL1        0.0650
     19 H           4.3860    2.9276    0.0000 H       1  UNL1        0.0724
     20 H           3.9875    2.2373    0.0000 H       1  UNL1        0.0724
     21 H           5.2520    4.4276    0.0000 H       1  UNL1        0.0584
     22 H           4.8535    3.7373    0.0000 H       1  UNL1        0.0584
     23 H           6.8671    2.6550    0.0000 H       1  UNL1        0.2100
     24 H           2.3291   -0.3450    0.0000 H       1  UNL1        0.0626
     25 H           4.2690   -1.8450    0.0000 H       1  UNL1        0.0625
     26 H           1.4631   -1.8450    0.0000 H       1  UNL1        0.0625
     27 H           4.2690   -0.4650    0.0000 H       1  UNL1        0.0689
     28 H           4.2690   -3.4650    0.0000 H       1  UNL1        0.0654
     29 H           1.4631   -3.4650    0.0000 H       1  UNL1        0.0654
     30 H           6.3301    4.9650    0.0000 H       1  UNL1        0.2095
     31 H           2.3291   -4.9650    0.0000 H       1  UNL1        0.2921
@<TRIPOS>BOND
     1     1     7    1
     2     1    11    1
     3     2     6    1
     4     2    23    1
     5     3     8    1
     6     3    30    1
     7     4    17    1
     8     4    31    1
     9     5    11    2
    10     6     7    1
    11     6     8    1
    12     6    18    1
    13     7    19    1
    14     7    20    1
    15     8    21    1
    16     8    22    1
    17     9    10    1
    18     9    12   ar
    19     9    13   ar
    20    10    14    2
    21    10    24    1
    22    11    14    1
    23    12    15   ar
    24    12    25    1
    25    13    16   ar
    26    13    26    1
    27    14    27    1
    28    15    17   ar
    29    15    28    1
    30    16    17   ar
    31    16    29    1
