@<TRIPOS>MOLECULE
IMPHY001795
 34 35 0 0 0
SMALL
GASTEIGER

@<TRIPOS>ATOM
      1 O           5.4641    2.2500    0.0000 O.2     1  UNL1       -0.2705
      2 N           4.5981    0.7500    0.0000 N.am    1  UNL1       -0.2885
      3 C           2.8660   -0.2500    0.0000 C.ar    1  UNL1       -0.0239
      4 C           8.0622    0.7500    0.0000 C.ar    1  UNL1       -0.0249
      5 C           2.0000   -0.7500    0.0000 C.ar    1  UNL1       -0.0546
      6 C           3.7320   -0.7500    0.0000 C.ar    1  UNL1       -0.0546
      7 C           8.0622   -0.2500    0.0000 C.ar    1  UNL1       -0.0546
      8 C           8.9282    1.2500    0.0000 C.ar    1  UNL1       -0.0546
      9 C           2.8660    0.7500    0.0000 C.2     1  UNL1       -0.0407
     10 C           7.1962    1.2500    0.0000 C.2     1  UNL1       -0.0497
     11 C           2.0000   -1.7500    0.0000 C.ar    1  UNL1       -0.0612
     12 C           3.7320   -1.7500    0.0000 C.ar    1  UNL1       -0.0612
     13 C           8.9282   -0.7500    0.0000 C.ar    1  UNL1       -0.0612
     14 C           9.7942    0.7500    0.0000 C.ar    1  UNL1       -0.0612
     15 C           3.7320    1.2500    0.0000 C.2     1  UNL1       -0.0029
     16 C           6.3301    0.7500    0.0000 C.2     1  UNL1        0.0010
     17 C           2.8660   -2.2500    0.0000 C.ar    1  UNL1       -0.0617
     18 C           9.7942   -0.2500    0.0000 C.ar    1  UNL1       -0.0617
     19 C           5.4641    1.2500    0.0000 C.2     1  UNL1        0.2407
     20 H           1.4631   -0.4400    0.0000 H       1  UNL1        0.0623
     21 H           4.2690   -0.4400    0.0000 H       1  UNL1        0.0623
     22 H           7.5252   -0.5600    0.0000 H       1  UNL1        0.0623
     23 H           8.9282    1.8700    0.0000 H       1  UNL1        0.0623
     24 H           2.3291    1.0600    0.0000 H       1  UNL1        0.0636
     25 H           7.1962    1.8700    0.0000 H       1  UNL1        0.0625
     26 H           1.4631   -2.0600    0.0000 H       1  UNL1        0.0618
     27 H           4.2690   -2.0600    0.0000 H       1  UNL1        0.0618
     28 H           8.9282   -1.3700    0.0000 H       1  UNL1        0.0618
     29 H          10.3312    1.0600    0.0000 H       1  UNL1        0.0618
     30 H           3.7320    1.8700    0.0000 H       1  UNL1        0.0782
     31 H           6.3301    0.1300    0.0000 H       1  UNL1        0.0670
     32 H           2.8660   -2.8700    0.0000 H       1  UNL1        0.0618
     33 H          10.3312   -0.5600    0.0000 H       1  UNL1        0.0618
     34 H           4.5981    0.1300    0.0000 H       1  UNL1        0.1545
@<TRIPOS>BOND
     1     1    19    2
     2     2    15    1
     3     2    19   am
     4     2    34    1
     5     3     5   ar
     6     3     6   ar
     7     3     9    1
     8     4     7   ar
     9     4     8   ar
    10     4    10    1
    11     5    11   ar
    12     5    20    1
    13     6    12   ar
    14     6    21    1
    15     7    13   ar
    16     7    22    1
    17     8    14   ar
    18     8    23    1
    19     9    15    2
    20     9    24    1
    21    10    16    2
    22    10    25    1
    23    11    17   ar
    24    11    26    1
    25    12    17   ar
    26    12    27    1
    27    13    18   ar
    28    13    28    1
    29    14    18   ar
    30    14    29    1
    31    15    30    1
    32    16    19    1
    33    16    31    1
    34    17    32    1
    35    18    33    1
