@<TRIPOS>MOLECULE
IMPHY002543
 57 60 0 0 0
SMALL
GASTEIGER

@<TRIPOS>ATOM
      1 O           5.1350   -1.6796    0.0000 O.3     1  UNL1       -0.3313
      2 O           6.8671   -1.6796    0.0000 O.3     1  UNL1       -0.4606
      3 O           5.1350   -4.6796    0.0000 O.3     1  UNL1       -0.3864
      4 O           3.4030   -3.6796    0.0000 O.3     1  UNL1       -0.3865
      5 O           6.8671   -3.6796    0.0000 O.3     1  UNL1       -0.3829
      6 O           2.5369   -2.1796    0.0000 O.3     1  UNL1       -0.3924
      7 O           8.6230    1.3829    0.0000 O.3     1  UNL1       -0.4828
      8 O           5.1208    1.3996    0.0000 O.3     1  UNL1       -0.5058
      9 O           6.0308    2.8930    0.0000 O.2     1  UNL1       -0.2917
     10 O          12.0910    2.3696    0.0000 O.3     1  UNL1       -0.4914
     11 O          12.0987    4.3696    0.0000 O.3     1  UNL1       -0.5033
     12 C           5.1350   -3.6796    0.0000 C.3     1  UNL1        0.1152
     13 C           4.2690   -3.1796    0.0000 C.3     1  UNL1        0.1120
     14 C           6.0010   -3.1796    0.0000 C.3     1  UNL1        0.1454
     15 C           4.2690   -2.1796    0.0000 C.3     1  UNL1        0.1140
     16 C           6.0010   -2.1796    0.0000 C.3     1  UNL1        0.2308
     17 C           3.4030   -1.6796    0.0000 C.3     1  UNL1        0.0731
     18 C           6.8671   -0.6796    0.0000 C.ar    1  UNL1        0.1310
     19 C           8.6269    2.3829    0.0000 C.3     1  UNL1        0.1323
     20 C           7.7628    2.8863    0.0000 C.3     1  UNL1        0.0520
     21 C           7.7551    0.8863    0.0000 C.ar    1  UNL1        0.1389
     22 C           6.8910    1.3896    0.0000 C.ar    1  UNL1        0.1007
     23 C           7.7671   -0.1553    0.0000 C.ar    1  UNL1        0.0229
     24 C           6.8948    2.3896    0.0000 C.2     1  UNL1        0.1740
     25 C           5.9670   -0.1553    0.0000 C.ar    1  UNL1        0.0226
     26 C           5.9790    0.8863    0.0000 C.ar    1  UNL1        0.1343
     27 C           9.4948    2.8796    0.0000 C.ar    1  UNL1       -0.0033
     28 C          10.3589    2.3763    0.0000 C.ar    1  UNL1       -0.0096
     29 C           9.4987    3.8796    0.0000 C.ar    1  UNL1       -0.0514
     30 C          11.2269    2.8729    0.0000 C.ar    1  UNL1        0.1616
     31 C          10.3666    4.3762    0.0000 C.ar    1  UNL1       -0.0161
     32 C          11.2307    3.8729    0.0000 C.ar    1  UNL1        0.1585
     33 C          12.9589    2.8662    0.0000 C.3     1  UNL1        0.0790
     34 H           5.6720   -3.9896    0.0000 H       1  UNL1        0.0648
     35 H           4.2690   -3.7996    0.0000 H       1  UNL1        0.0647
     36 H           6.5380   -2.8696    0.0000 H       1  UNL1        0.0683
     37 H           4.2690   -1.5596    0.0000 H       1  UNL1        0.0647
     38 H           6.0010   -1.5596    0.0000 H       1  UNL1        0.1084
     39 H           3.8015   -1.2046    0.0000 H       1  UNL1        0.0584
     40 H           3.0044   -1.2046    0.0000 H       1  UNL1        0.0584
     41 H           4.5981   -4.9896    0.0000 H       1  UNL1        0.2100
     42 H           3.4030   -4.2996    0.0000 H       1  UNL1        0.2100
     43 H           6.8671   -4.2996    0.0000 H       1  UNL1        0.2102
     44 H           8.6293    3.0029    0.0000 H       1  UNL1        0.0789
     45 H           8.1632    3.3597    0.0000 H       1  UNL1        0.0385
     46 H           7.3661    3.3628    0.0000 H       1  UNL1        0.0385
     47 H           8.3064   -0.4611    0.0000 H       1  UNL1        0.0691
     48 H           5.4277   -0.4611    0.0000 H       1  UNL1        0.0691
     49 H           2.0000   -1.8696    0.0000 H       1  UNL1        0.2095
     50 H          10.3565    1.7563    0.0000 H       1  UNL1        0.0659
     51 H           8.9630    4.1916    0.0000 H       1  UNL1        0.0623
     52 H          10.3690    4.9962    0.0000 H       1  UNL1        0.0655
     53 H           4.5792    1.0979    0.0000 H       1  UNL1        0.2922
     54 H          12.1011    4.9896    0.0000 H       1  UNL1        0.2923
     55 H          13.2668    2.3281    0.0000 H       1  UNL1        0.0660
     56 H          13.4970    3.1742    0.0000 H       1  UNL1        0.0660
     57 H          12.6510    3.4044    0.0000 H       1  UNL1        0.0660
@<TRIPOS>BOND
     1     1    15    1
     2     1    16    1
     3     2    16    1
     4     2    18    1
     5     3    12    1
     6     3    41    1
     7     4    13    1
     8     4    42    1
     9     5    14    1
    10     5    43    1
    11     6    17    1
    12     6    49    1
    13     7    19    1
    14     7    21    1
    15     8    26    1
    16     8    53    1
    17     9    24    2
    18    10    30    1
    19    10    33    1
    20    11    32    1
    21    11    54    1
    22    12    13    1
    23    12    14    1
    24    12    34    1
    25    13    15    1
    26    13    35    1
    27    14    16    1
    28    14    36    1
    29    15    17    1
    30    15    37    1
    31    16    38    1
    32    17    39    1
    33    17    40    1
    34    18    23   ar
    35    18    25   ar
    36    19    20    1
    37    19    27    1
    38    19    44    1
    39    20    24    1
    40    20    45    1
    41    20    46    1
    42    21    22   ar
    43    21    23   ar
    44    22    24    1
    45    22    26   ar
    46    23    47    1
    47    25    26   ar
    48    25    48    1
    49    27    28   ar
    50    27    29   ar
    51    28    30   ar
    52    28    50    1
    53    29    31   ar
    54    29    51    1
    55    30    32   ar
    56    31    32   ar
    57    31    52    1
    58    33    55    1
    59    33    56    1
    60    33    57    1
