@<TRIPOS>MOLECULE
IMPHY002441
 35 38 0 0 0
SMALL
GASTEIGER

@<TRIPOS>ATOM
      1 N           2.9180    0.3137    0.0000 N.3     1  UNL1       -0.2906
      2 C           3.7841   -0.1863    0.0000 C.3     1  UNL1        0.0402
      3 C           4.6501    0.3137    0.0000 C.3     1  UNL1       -0.0076
      4 C           2.0080   -0.1931    0.0000 C.3     1  UNL1        0.0038
      5 C           3.8001   -1.2278    0.0000 C.ar    1  UNL1       -0.0267
      6 C           2.9180    1.3137    0.0000 C.3     1  UNL1        0.0249
      7 C           2.0000   -1.2347    0.0000 C.3     1  UNL1       -0.0145
      8 C           2.9021   -1.7555    0.0000 C.ar    1  UNL1       -0.0415
      9 C           4.6501    1.3137    0.0000 C.ar    1  UNL1       -0.0412
     10 C           3.7841    1.8137    0.0000 C.ar    1  UNL1       -0.0301
     11 C           4.7520   -1.7484    0.0000 C.ar    1  UNL1       -0.0568
     12 C           2.8937   -2.8405    0.0000 C.ar    1  UNL1       -0.0582
     13 C           5.5601    1.8206    0.0000 C.ar    1  UNL1       -0.0582
     14 C           3.7680    2.8552    0.0000 C.ar    1  UNL1       -0.0571
     15 C           4.7688   -2.8333    0.0000 C.ar    1  UNL1       -0.0614
     16 C           3.8334   -3.3830    0.0000 C.ar    1  UNL1       -0.0615
     17 C           5.5681    2.8622    0.0000 C.ar    1  UNL1       -0.0615
     18 C           4.6660    3.3830    0.0000 C.ar    1  UNL1       -0.0614
     19 H           4.3234   -0.4921    0.0000 H       1  UNL1        0.0516
     20 H           4.8621   -0.2689    0.0000 H       1  UNL1        0.0332
     21 H           5.2607    0.4214    0.0000 H       1  UNL1        0.0332
     22 H           1.8035    0.3922    0.0000 H       1  UNL1        0.0430
     23 H           1.3964   -0.2945    0.0000 H       1  UNL1        0.0430
     24 H           2.7060    1.8963    0.0000 H       1  UNL1        0.0476
     25 H           2.3074    1.2061    0.0000 H       1  UNL1        0.0476
     26 H           1.3900   -1.1239    0.0000 H       1  UNL1        0.0326
     27 H           1.7864   -1.8168    0.0000 H       1  UNL1        0.0326
     28 H           5.2829   -1.4281    0.0000 H       1  UNL1        0.0621
     29 H           2.3556   -3.1484    0.0000 H       1  UNL1        0.0620
     30 H           6.0934    1.5044    0.0000 H       1  UNL1        0.0620
     31 H           3.2275    3.1590    0.0000 H       1  UNL1        0.0621
     32 H           5.3093   -3.1370    0.0000 H       1  UNL1        0.0618
     33 H           3.8357   -4.0030    0.0000 H       1  UNL1        0.0618
     34 H           6.1062    3.1701    0.0000 H       1  UNL1        0.0618
     35 H           4.6636    4.0030    0.0000 H       1  UNL1        0.0618
@<TRIPOS>BOND
     1     1     2    1
     2     1     4    1
     3     1     6    1
     4     2     3    1
     5     2     5    1
     6     2    19    1
     7     3     9    1
     8     3    20    1
     9     3    21    1
    10     4     7    1
    11     4    22    1
    12     4    23    1
    13     5     8   ar
    14     5    11   ar
    15     6    10    1
    16     6    24    1
    17     6    25    1
    18     7     8    1
    19     7    26    1
    20     7    27    1
    21     8    12   ar
    22     9    10   ar
    23     9    13   ar
    24    10    14   ar
    25    11    15   ar
    26    11    28    1
    27    12    16   ar
    28    12    29    1
    29    13    17   ar
    30    13    30    1
    31    14    18   ar
    32    14    31    1
    33    15    16   ar
    34    15    32    1
    35    16    33    1
    36    17    18   ar
    37    17    34    1
    38    18    35    1
