@<TRIPOS>MOLECULE
IMPHY011221
 55 54 0 0 0
SMALL
GASTEIGER

@<TRIPOS>ATOM
      1 O           2.8660    0.2500    0.0000 O.3     1  UNL1       -0.4679
      2 O           3.7320   -1.2500    0.0000 O.2     1  UNL1       -0.2509
      3 C          14.1244    0.7500    0.0000 C.3     1  UNL1       -0.0531
      4 C          13.2583    1.2500    0.0000 C.3     1  UNL1       -0.0531
      5 C          14.9904    1.2500    0.0000 C.3     1  UNL1       -0.0531
      6 C          12.3923    0.7500    0.0000 C.3     1  UNL1       -0.0530
      7 C          15.8564    0.7500    0.0000 C.3     1  UNL1       -0.0531
      8 C          11.5263    1.2500    0.0000 C.3     1  UNL1       -0.0522
      9 C          16.7224    1.2500    0.0000 C.3     1  UNL1       -0.0533
     10 C          10.6603    0.7500    0.0000 C.3     1  UNL1       -0.0422
     11 C          17.5885    0.7500    0.0000 C.3     1  UNL1       -0.0559
     12 C           9.7942    1.2500    0.0000 C.3     1  UNL1        0.0091
     13 C          18.4545    1.2500    0.0000 C.3     1  UNL1       -0.0653
     14 C           6.3301    0.2500    0.0000 C.3     1  UNL1       -0.0417
     15 C           5.4641   -0.2500    0.0000 C.3     1  UNL1       -0.0421
     16 C           8.9282    0.7500    0.0000 C.1     1  UNL1       -0.1022
     17 C           7.1962   -0.2500    0.0000 C.3     1  UNL1        0.0091
     18 C           4.5981    0.2500    0.0000 C.3     1  UNL1        0.0450
     19 C           8.0622    0.2500    0.0000 C.1     1  UNL1       -0.1022
     20 C           3.7320   -0.2500    0.0000 C.2     1  UNL1        0.3068
     21 C           2.0000   -0.2500    0.0000 C.3     1  UNL1        0.0817
     22 H          13.7258    0.2751    0.0000 H       1  UNL1        0.0265
     23 H          14.5229    0.2751    0.0000 H       1  UNL1        0.0265
     24 H          13.6569    1.7250    0.0000 H       1  UNL1        0.0265
     25 H          12.8598    1.7250    0.0000 H       1  UNL1        0.0265
     26 H          15.3889    1.7250    0.0000 H       1  UNL1        0.0265
     27 H          14.5919    1.7250    0.0000 H       1  UNL1        0.0265
     28 H          11.9938    0.2751    0.0000 H       1  UNL1        0.0265
     29 H          12.7908    0.2751    0.0000 H       1  UNL1        0.0265
     30 H          15.4579    0.2751    0.0000 H       1  UNL1        0.0265
     31 H          16.2549    0.2751    0.0000 H       1  UNL1        0.0265
     32 H          11.9248    1.7250    0.0000 H       1  UNL1        0.0266
     33 H          11.1278    1.7250    0.0000 H       1  UNL1        0.0266
     34 H          17.1210    1.7250    0.0000 H       1  UNL1        0.0265
     35 H          16.3239    1.7250    0.0000 H       1  UNL1        0.0265
     36 H          10.2617    0.2751    0.0000 H       1  UNL1        0.0274
     37 H          11.0588    0.2751    0.0000 H       1  UNL1        0.0274
     38 H          17.1899    0.2751    0.0000 H       1  UNL1        0.0263
     39 H          17.9870    0.2751    0.0000 H       1  UNL1        0.0263
     40 H          10.1928    1.7250    0.0000 H       1  UNL1        0.0397
     41 H           9.3957    1.7250    0.0000 H       1  UNL1        0.0397
     42 H          18.7645    0.7131    0.0000 H       1  UNL1        0.0230
     43 H          18.9914    1.5600    0.0000 H       1  UNL1        0.0230
     44 H          18.1445    1.7869    0.0000 H       1  UNL1        0.0230
     45 H           6.7287    0.7249    0.0000 H       1  UNL1        0.0274
     46 H           5.9316    0.7249    0.0000 H       1  UNL1        0.0274
     47 H           5.0656   -0.7249    0.0000 H       1  UNL1        0.0271
     48 H           5.8626   -0.7249    0.0000 H       1  UNL1        0.0271
     49 H           6.7976   -0.7249    0.0000 H       1  UNL1        0.0397
     50 H           7.5947   -0.7249    0.0000 H       1  UNL1        0.0397
     51 H           4.9966    0.7249    0.0000 H       1  UNL1        0.0377
     52 H           4.1996    0.7249    0.0000 H       1  UNL1        0.0377
     53 H           1.6900    0.2869    0.0000 H       1  UNL1        0.0661
     54 H           1.4631   -0.5600    0.0000 H       1  UNL1        0.0661
     55 H           2.3100   -0.7869    0.0000 H       1  UNL1        0.0661
@<TRIPOS>BOND
     1     1    20    1
     2     1    21    1
     3     2    20    2
     4     3     4    1
     5     3     5    1
     6     3    22    1
     7     3    23    1
     8     4     6    1
     9     4    24    1
    10     4    25    1
    11     5     7    1
    12     5    26    1
    13     5    27    1
    14     6     8    1
    15     6    28    1
    16     6    29    1
    17     7     9    1
    18     7    30    1
    19     7    31    1
    20     8    10    1
    21     8    32    1
    22     8    33    1
    23     9    11    1
    24     9    34    1
    25     9    35    1
    26    10    12    1
    27    10    36    1
    28    10    37    1
    29    11    13    1
    30    11    38    1
    31    11    39    1
    32    12    16    1
    33    12    40    1
    34    12    41    1
    35    13    42    1
    36    13    43    1
    37    13    44    1
    38    14    15    1
    39    14    17    1
    40    14    45    1
    41    14    46    1
    42    15    18    1
    43    15    47    1
    44    15    48    1
    45    16    19    3
    46    17    19    1
    47    17    49    1
    48    17    50    1
    49    18    20    1
    50    18    51    1
    51    18    52    1
    52    21    53    1
    53    21    54    1
    54    21    55    1
