@<TRIPOS>MOLECULE
IMPHY015434
 25 24 0 0 0
SMALL
GASTEIGER

@<TRIPOS>ATOM
      1 O           6.3301   -0.7500    0.0000 O.2     1  UNL1       -0.2977
      2 C           2.8660    0.2500    0.0000 C.3     1  UNL1       -0.0467
      3 C           3.7320    0.7500    0.0000 C.3     1  UNL1       -0.0503
      4 C           4.5981    0.2500    0.0000 C.3     1  UNL1       -0.0462
      5 C           5.4641    0.7500    0.0000 C.3     1  UNL1        0.0056
      6 C           2.0000    0.7500    0.0000 C.3     1  UNL1       -0.0627
      7 C           2.8660   -0.7500    0.0000 C.3     1  UNL1       -0.0627
      8 C           6.3301    0.2500    0.0000 C.2     1  UNL1        0.1303
      9 C           7.1962    0.7500    0.0000 C.3     1  UNL1       -0.0061
     10 H           2.8660    0.8700    0.0000 H       1  UNL1        0.0295
     11 H           4.1306    1.2250    0.0000 H       1  UNL1        0.0268
     12 H           3.3335    1.2250    0.0000 H       1  UNL1        0.0268
     13 H           4.1996   -0.2249    0.0000 H       1  UNL1        0.0269
     14 H           4.9966   -0.2249    0.0000 H       1  UNL1        0.0269
     15 H           5.8626    1.2250    0.0000 H       1  UNL1        0.0341
     16 H           5.0656    1.2250    0.0000 H       1  UNL1        0.0341
     17 H           2.3100    1.2869    0.0000 H       1  UNL1        0.0232
     18 H           1.4631    1.0600    0.0000 H       1  UNL1        0.0232
     19 H           1.6900    0.2131    0.0000 H       1  UNL1        0.0232
     20 H           2.2460   -0.7500    0.0000 H       1  UNL1        0.0232
     21 H           2.8660   -1.3700    0.0000 H       1  UNL1        0.0232
     22 H           3.4860   -0.7500    0.0000 H       1  UNL1        0.0232
     23 H           7.5062    0.2131    0.0000 H       1  UNL1        0.0306
     24 H           7.7331    1.0600    0.0000 H       1  UNL1        0.0306
     25 H           6.8862    1.2869    0.0000 H       1  UNL1        0.0306
@<TRIPOS>BOND
     1     1     8    2
     2     2     3    1
     3     2     6    1
     4     2     7    1
     5     2    10    1
     6     3     4    1
     7     3    11    1
     8     3    12    1
     9     4     5    1
    10     4    13    1
    11     4    14    1
    12     5     8    1
    13     5    15    1
    14     5    16    1
    15     6    17    1
    16     6    18    1
    17     6    19    1
    18     7    20    1
    19     7    21    1
    20     7    22    1
    21     8     9    1
    22     9    23    1
    23     9    24    1
    24     9    25    1
