@<TRIPOS>MOLECULE
IMPHY012748
 26 27 0 0 0
SMALL
GASTEIGER

@<TRIPOS>ATOM
      1 O           6.4103    0.5547    0.0000 O.3     1  UNL1       -0.4526
      2 O           6.4103   -1.0547    0.0000 O.3     1  UNL1       -0.4525
      3 O           2.8660   -1.2500    0.0000 O.3     1  UNL1       -0.4944
      4 C           5.4641    0.2500    0.0000 C.ar    1  UNL1        0.1670
      5 C           5.4641   -0.7500    0.0000 C.ar    1  UNL1        0.1697
      6 C           3.7320    0.2500    0.0000 C.ar    1  UNL1        0.0200
      7 C           3.7320   -0.7500    0.0000 C.ar    1  UNL1        0.1309
      8 C           4.5981    0.7500    0.0000 C.ar    1  UNL1       -0.0055
      9 C           4.5981   -1.2500    0.0000 C.ar    1  UNL1        0.0261
     10 C           6.9939   -0.2500    0.0000 C.3     1  UNL1        0.2332
     11 C           2.8660    0.7500    0.0000 C.2     1  UNL1       -0.0552
     12 C           2.8660    1.7500    0.0000 C.2     1  UNL1       -0.0864
     13 C           2.8660   -2.2500    0.0000 C.3     1  UNL1        0.0788
     14 C           2.0000    2.2500    0.0000 C.3     1  UNL1       -0.0465
     15 H           4.5981    1.3700    0.0000 H       1  UNL1        0.0662
     16 H           4.5981   -1.8700    0.0000 H       1  UNL1        0.0692
     17 H           7.4548   -0.6647    0.0000 H       1  UNL1        0.1166
     18 H           7.4548    0.1647    0.0000 H       1  UNL1        0.1166
     19 H           2.3291    0.4400    0.0000 H       1  UNL1        0.0621
     20 H           3.4030    2.0600    0.0000 H       1  UNL1        0.0569
     21 H           2.2460   -2.2500    0.0000 H       1  UNL1        0.0660
     22 H           2.8660   -2.8700    0.0000 H       1  UNL1        0.0660
     23 H           3.4860   -2.2500    0.0000 H       1  UNL1        0.0660
     24 H           2.3100    2.7869    0.0000 H       1  UNL1        0.0272
     25 H           1.4631    2.5600    0.0000 H       1  UNL1        0.0272
     26 H           1.6900    1.7131    0.0000 H       1  UNL1        0.0272
@<TRIPOS>BOND
     1     1     4    1
     2     1    10    1
     3     2     5    1
     4     2    10    1
     5     3     7    1
     6     3    13    1
     7     4     5   ar
     8     4     8   ar
     9     5     9   ar
    10     6     7   ar
    11     6     8   ar
    12     6    11    1
    13     7     9   ar
    14     8    15    1
    15     9    16    1
    16    10    17    1
    17    10    18    1
    18    11    12    2
    19    11    19    1
    20    12    14    1
    21    12    20    1
    22    13    21    1
    23    13    22    1
    24    13    23    1
    25    14    24    1
    26    14    25    1
    27    14    26    1
