@<TRIPOS>MOLECULE
IMPHY008926
 41 44 0 0 0
SMALL
GASTEIGER

@<TRIPOS>ATOM
      1 O           2.4751    0.0625    0.0000 O.3     1  UNL1       -0.3607
      2 O           2.7045    1.2860    0.0000 O.3     1  UNL1       -0.4506
      3 O           4.7361    2.0560    0.0000 O.2     1  UNL1       -0.4633
      4 O           5.8398   -1.1789    0.0000 O.3     1  UNL1       -0.4490
      5 O           6.2404   -2.8683    0.0000 O.2     1  UNL1       -0.2453
      6 O           3.7226    2.6873    0.0000 O.2     1  UNL1       -0.2511
      7 C           3.4090   -0.2963    0.0000 C.3     1  UNL1        0.1369
      8 C           2.6318   -0.9256    0.0000 C.3     1  UNL1        0.0925
      9 C           3.5135    0.6983    0.0000 C.3     1  UNL1        0.1912
     10 C           2.7883   -1.9133    0.0000 C.3     1  UNL1       -0.0195
     11 C           3.3044   -1.2908    0.0000 C.3     1  UNL1       -0.0294
     12 C           4.4271    1.1050    0.0000 C.ar    1  UNL1        0.1554
     13 C           3.5973   -2.5011    0.0000 C.3     1  UNL1       -0.0187
     14 C           5.2361    0.5172    0.0000 C.ar    1  UNL1        0.0443
     15 C           5.1315   -0.4773    0.0000 C.3     1  UNL1        0.1509
     16 C           4.5850   -2.3446    0.0000 C.2     1  UNL1        0.0366
     17 C           4.4285   -1.3569    0.0000 C.2     1  UNL1       -0.0294
     18 C           6.0451    1.1050    0.0000 C.ar    1  UNL1       -0.0053
     19 C           5.5598   -2.1357    0.0000 C.2     1  UNL1        0.3358
     20 C           5.7361    2.0560    0.0000 C.ar    1  UNL1        0.0955
     21 C           2.8090    2.2806    0.0000 C.2     1  UNL1        0.3047
     22 C           6.9961    0.7960    0.0000 C.3     1  UNL1       -0.0363
     23 C           2.0000    2.8683    0.0000 C.3     1  UNL1        0.0333
     24 H           2.0195   -1.0227    0.0000 H       1  UNL1        0.0626
     25 H           3.5783    1.3148    0.0000 H       1  UNL1        0.0847
     26 H           2.1717   -1.8485    0.0000 H       1  UNL1        0.0294
     27 H           2.5661   -2.4921    0.0000 H       1  UNL1        0.0294
     28 H           2.6878   -1.2260    0.0000 H       1  UNL1        0.0259
     29 H           3.2396   -1.9074    0.0000 H       1  UNL1        0.0259
     30 H           3.9210   -1.3556    0.0000 H       1  UNL1        0.0259
     31 H           3.1154   -2.8912    0.0000 H       1  UNL1        0.0316
     32 H           3.8495   -3.0675    0.0000 H       1  UNL1        0.0316
     33 H           5.7155   -0.2690    0.0000 H       1  UNL1        0.0833
     34 H           3.8292   -1.1984    0.0000 H       1  UNL1        0.0617
     35 H           6.1005    2.5576    0.0000 H       1  UNL1        0.1032
     36 H           6.8046    0.2063    0.0000 H       1  UNL1        0.0279
     37 H           7.5858    0.6044    0.0000 H       1  UNL1        0.0279
     38 H           7.1877    1.3856    0.0000 H       1  UNL1        0.0279
     39 H           2.3644    3.3699    0.0000 H       1  UNL1        0.0342
     40 H           1.4984    3.2328    0.0000 H       1  UNL1        0.0342
     41 H           1.6356    2.3668    0.0000 H       1  UNL1        0.0342
@<TRIPOS>BOND
     1     1     7    1
     2     1     8    1
     3     2     9    1
     4     2    21    1
     5     3    12   ar
     6     3    20   ar
     7     4    15    1
     8     4    19    1
     9     5    19    2
    10     6    21    2
    11     7     8    1
    12     7     9    1
    13     7    11    1
    14     8    10    1
    15     8    24    1
    16     9    12    1
    17     9    25    1
    18    10    13    1
    19    10    26    1
    20    10    27    1
    21    11    28    1
    22    11    29    1
    23    11    30    1
    24    12    14   ar
    25    13    16    1
    26    13    31    1
    27    13    32    1
    28    14    15    1
    29    14    18   ar
    30    15    17    1
    31    15    33    1
    32    16    17    2
    33    16    19    1
    34    17    34    1
    35    18    20   ar
    36    18    22    1
    37    20    35    1
    38    21    23    1
    39    22    36    1
    40    22    37    1
    41    22    38    1
    42    23    39    1
    43    23    40    1
    44    23    41    1
