@<TRIPOS>MOLECULE
IMPHY012252
 74 78 0 0 0
SMALL
GASTEIGER

@<TRIPOS>ATOM
      1 O           6.8671   -1.7787    0.0000 O.3     1  UNL1       -0.3313
      2 O           6.0010   -4.2787    0.0000 O.3     1  UNL1       -0.3461
      3 O           4.2690   -4.2787    0.0000 O.3     1  UNL1       -0.3431
      4 O           7.7331   -4.2787    0.0000 O.3     1  UNL1       -0.3865
      5 O           7.7331   -0.2787    0.0000 O.3     1  UNL1       -0.4606
      6 O           9.4651   -3.2787    0.0000 O.3     1  UNL1       -0.3864
      7 O           9.4651   -1.2787    0.0000 O.3     1  UNL1       -0.3829
      8 O           6.0010   -6.2787    0.0000 O.3     1  UNL1       -0.3841
      9 O           4.2690   -7.2787    0.0000 O.3     1  UNL1       -0.3864
     10 O           2.5369   -6.2787    0.0000 O.3     1  UNL1       -0.3866
     11 O           5.9589    2.7733    0.0000 O.3     1  UNL1       -0.4828
     12 O           4.1934   -0.2514    0.0000 O.3     1  UNL1       -0.5058
     13 O           3.3550    1.2833    0.0000 O.2     1  UNL1       -0.2917
     14 O           6.8384    6.2699    0.0000 O.3     1  UNL1       -0.5033
     15 O           5.1102    7.2766    0.0000 O.3     1  UNL1       -0.5033
     16 C           6.8671   -2.7787    0.0000 C.3     1  UNL1        0.1144
     17 C           7.7331   -3.2787    0.0000 C.3     1  UNL1        0.1120
     18 C           8.5991   -2.7787    0.0000 C.3     1  UNL1        0.1152
     19 C           8.5991   -1.7787    0.0000 C.3     1  UNL1        0.1454
     20 C           5.1350   -5.7787    0.0000 C.3     1  UNL1        0.1341
     21 C           5.1350   -4.7787    0.0000 C.3     1  UNL1        0.1879
     22 C           4.2690   -6.2787    0.0000 C.3     1  UNL1        0.1140
     23 C           3.4030   -5.7787    0.0000 C.3     1  UNL1        0.1095
     24 C           7.7331   -1.2787    0.0000 C.3     1  UNL1        0.2308
     25 C           6.0010   -3.2787    0.0000 C.3     1  UNL1        0.0796
     26 C           3.4030   -4.7787    0.0000 C.3     1  UNL1        0.0873
     27 C           2.5369   -4.2787    0.0000 C.3     1  UNL1       -0.0361
     28 C           6.8671    0.2213    0.0000 C.ar    1  UNL1        0.1310
     29 C           6.8630    1.2630    0.0000 C.ar    1  UNL1        0.0229
     30 C           5.9550    1.7733    0.0000 C.ar    1  UNL1        0.1389
     31 C           5.9630   -0.2960    0.0000 C.ar    1  UNL1        0.0226
     32 C           5.0948    3.2766    0.0000 C.3     1  UNL1        0.1323
     33 C           5.0871    1.2766    0.0000 C.ar    1  UNL1        0.1007
     34 C           4.2268    2.7800    0.0000 C.3     1  UNL1        0.0520
     35 C           5.0670    0.2352    0.0000 C.ar    1  UNL1        0.1343
     36 C           4.2230    1.7800    0.0000 C.2     1  UNL1        0.1740
     37 C           5.0986    4.2766    0.0000 C.ar    1  UNL1       -0.0033
     38 C           5.9666    4.7733    0.0000 C.ar    1  UNL1       -0.0099
     39 C           4.2345    4.7800    0.0000 C.ar    1  UNL1       -0.0514
     40 C           5.9704    5.7733    0.0000 C.ar    1  UNL1        0.1586
     41 C           4.2384    5.7800    0.0000 C.ar    1  UNL1       -0.0162
     42 C           5.1063    6.2766    0.0000 C.ar    1  UNL1        0.1582
     43 H           6.3301   -2.4687    0.0000 H       1  UNL1        0.0647
     44 H           8.2700   -3.5887    0.0000 H       1  UNL1        0.0647
     45 H           9.1360   -2.4687    0.0000 H       1  UNL1        0.0648
     46 H           8.5991   -1.1587    0.0000 H       1  UNL1        0.0683
     47 H           5.1350   -6.3987    0.0000 H       1  UNL1        0.0671
     48 H           5.1350   -4.1587    0.0000 H       1  UNL1        0.0937
     49 H           3.7320   -6.5887    0.0000 H       1  UNL1        0.0648
     50 H           3.4030   -6.3987    0.0000 H       1  UNL1        0.0646
     51 H           7.1962   -0.9687    0.0000 H       1  UNL1        0.1084
     52 H           5.7890   -2.6961    0.0000 H       1  UNL1        0.0587
     53 H           5.3905   -3.3863    0.0000 H       1  UNL1        0.0587
     54 H           3.4030   -4.1587    0.0000 H       1  UNL1        0.0621
     55 H           2.8469   -3.7417    0.0000 H       1  UNL1        0.0255
     56 H           2.0000   -3.9687    0.0000 H       1  UNL1        0.0255
     57 H           2.2269   -4.8156    0.0000 H       1  UNL1        0.0255
     58 H           8.2700   -4.5887    0.0000 H       1  UNL1        0.2100
     59 H          10.0021   -2.9687    0.0000 H       1  UNL1        0.2100
     60 H           9.4651   -0.6587    0.0000 H       1  UNL1        0.2102
     61 H           6.5380   -5.9687    0.0000 H       1  UNL1        0.2101
     62 H           3.7320   -7.5887    0.0000 H       1  UNL1        0.2100
     63 H           2.0000   -5.9687    0.0000 H       1  UNL1        0.2100
     64 H           7.3976    1.5771    0.0000 H       1  UNL1        0.0691
     65 H           5.6329    3.5846    0.0000 H       1  UNL1        0.0789
     66 H           5.9582   -0.9160    0.0000 H       1  UNL1        0.0691
     67 H           4.0170    3.3634    0.0000 H       1  UNL1        0.0385
     68 H           3.6158    2.6747    0.0000 H       1  UNL1        0.0385
     69 H           6.5023    4.4612    0.0000 H       1  UNL1        0.0659
     70 H           3.6964    4.4720    0.0000 H       1  UNL1        0.0623
     71 H           4.1838   -0.8713    0.0000 H       1  UNL1        0.2922
     72 H           3.7026    6.0920    0.0000 H       1  UNL1        0.0655
     73 H           6.8408    6.8899    0.0000 H       1  UNL1        0.2923
     74 H           4.5744    7.5887    0.0000 H       1  UNL1        0.2923
@<TRIPOS>BOND
     1     1    16    1
     2     1    24    1
     3    21     2    1
     4     2    25    1
     5     3    21    1
     6     3    26    1
     7    17     4    1
     8     4    58    1
     9    24     5    1
    10     5    28    1
    11    18     6    1
    12     6    59    1
    13    19     7    1
    14     7    60    1
    15    20     8    1
    16     8    61    1
    17    22     9    1
    18     9    62    1
    19    23    10    1
    20    10    63    1
    21    11    30    1
    22    11    32    1
    23    12    35    1
    24    12    71    1
    25    13    36    2
    26    14    40    1
    27    14    73    1
    28    15    42    1
    29    15    74    1
    30    16    17    1
    31    16    25    1
    32    16    43    1
    33    17    18    1
    34    17    44    1
    35    18    19    1
    36    18    45    1
    37    19    24    1
    38    19    46    1
    39    20    21    1
    40    20    22    1
    41    20    47    1
    42    21    48    1
    43    22    23    1
    44    22    49    1
    45    23    26    1
    46    23    50    1
    47    24    51    1
    48    25    52    1
    49    25    53    1
    50    26    27    1
    51    26    54    1
    52    27    55    1
    53    27    56    1
    54    27    57    1
    55    28    29   ar
    56    28    31   ar
    57    29    30   ar
    58    29    64    1
    59    30    33   ar
    60    31    35   ar
    61    31    66    1
    62    32    34    1
    63    32    37    1
    64    32    65    1
    65    33    35   ar
    66    33    36    1
    67    34    36    1
    68    34    67    1
    69    34    68    1
    70    37    38   ar
    71    37    39   ar
    72    38    40   ar
    73    38    69    1
    74    39    41   ar
    75    39    70    1
    76    40    42   ar
    77    41    42   ar
    78    41    72    1
