@<TRIPOS>MOLECULE
IMPHY014352
 125 136 0 0 0
SMALL
GASTEIGER

@<TRIPOS>ATOM
      1 O           9.7022   -1.4663    0.0000 O.3     1  UNL1       -0.4530
      2 O          10.5068   -1.6245    0.0000 O.3     1  UNL1       -0.4502
      3 O           6.7375   -1.5750    0.0000 O.3     1  UNL1       -0.4808
      4 O          10.7139    0.9839    0.0000 O.3     1  UNL1       -0.4501
      5 O          12.4386   -1.1069    0.0000 O.3     1  UNL1       -0.4505
      6 O           6.3716   -2.3735    0.0000 O.3     1  UNL1       -0.5030
      7 O           9.1138    0.9840    0.0000 O.3     1  UNL1       -0.5062
      8 O           4.0255   -1.4443    0.0000 O.3     1  UNL1       -0.3875
      9 O           9.9842   -3.0640    0.0000 O.2     1  UNL1       -0.2449
     10 O          12.1798    1.2733    0.0000 O.3     1  UNL1       -0.4573
     11 O           8.0576   -4.9178    0.0000 O.3     1  UNL1       -0.5028
     12 O           6.4550   -3.8171    0.0000 O.3     1  UNL1       -0.5009
     13 O           5.7447    1.7896    0.0000 O.3     1  UNL1       -0.5063
     14 O          11.4727   -1.3657    0.0000 O.2     1  UNL1       -0.2449
     15 O           8.8902   -5.0088    0.0000 O.3     1  UNL1       -0.5028
     16 O          12.3113   -5.6165    0.0000 O.3     1  UNL1       -0.5028
     17 O          10.4197   -6.3321    0.0000 O.3     1  UNL1       -0.5009
     18 O          12.2101    1.7628    0.0000 O.2     1  UNL1       -0.2449
     19 O          11.9209   -3.0387    0.0000 O.2     1  UNL1       -0.2449
     20 O          13.0832   -5.4565    0.0000 O.3     1  UNL1       -0.5028
     21 O           2.4246   -2.8791    0.0000 O.3     1  UNL1       -0.5033
     22 O          11.2866    2.9587    0.0000 O.2     1  UNL1       -0.2449
     23 O          15.0658   -4.9416    0.0000 O.3     1  UNL1       -0.5009
     24 O          15.5959   -2.9631    0.0000 O.3     1  UNL1       -0.5032
     25 O           3.0018   -4.7941    0.0000 O.3     1  UNL1       -0.5033
     26 O           9.4655    4.8845    0.0000 O.3     1  UNL1       -0.5028
     27 O           7.5479    2.3253    0.0000 O.3     1  UNL1       -0.5032
     28 O          10.3261    5.3814    0.0000 O.3     1  UNL1       -0.5028
     29 O           7.6838    3.8741    0.0000 O.3     1  UNL1       -0.5009
     30 O          12.0920    6.4192    0.0000 O.3     1  UNL1       -0.5009
     31 O          13.8659    5.3950    0.0000 O.3     1  UNL1       -0.5032
     32 C           8.6487   -0.9612    0.0000 C.3     1  UNL1        0.0612
     33 C           9.5187   -0.4802    0.0000 C.3     1  UNL1        0.1548
     34 C          10.5068   -0.5892    0.0000 C.3     1  UNL1        0.1811
     35 C           8.2155   -1.8559    0.0000 C.ar    1  UNL1        0.0237
     36 C          11.2139    0.1179    0.0000 C.3     1  UNL1        0.1834
     37 C           7.9227   -0.2735    0.0000 C.ar    1  UNL1        0.0473
     38 C           8.3778   -2.8367    0.0000 C.ar    1  UNL1        0.0779
     39 C           6.9641   -0.5583    0.0000 C.ar    1  UNL1        0.1356
     40 C          12.1798   -0.1410    0.0000 C.3     1  UNL1        0.1774
     41 C           6.2382    0.1294    0.0000 C.ar    1  UNL1        0.0387
     42 C           9.0762   -3.5442    0.0000 C.ar    1  UNL1        0.0461
     43 C           9.2652   -2.3691    0.0000 C.2     1  UNL1        0.3407
     44 C           7.3716   -2.3733    0.0000 C.ar    1  UNL1        0.1668
     45 C           8.1553    0.6991    0.0000 C.ar    1  UNL1        0.1277
     46 C           5.2352   -0.1519    0.0000 C.3     1  UNL1        0.0092
     47 C           4.9852   -1.1631    0.0000 C.3     1  UNL1        0.1004
     48 C           5.7414   -1.8795    0.0000 C.3     1  UNL1        0.1513
     49 C          10.0548   -3.7191    0.0000 C.ar    1  UNL1        0.0464
     50 C          10.9551   -3.2976    0.0000 C.ar    1  UNL1        0.0819
     51 C          12.8869    0.5662    0.0000 C.3     1  UNL1        0.1333
     52 C           8.1618   -3.9233    0.0000 C.ar    1  UNL1        0.1708
     53 C           7.3459   -3.3628    0.0000 C.ar    1  UNL1        0.2015
     54 C           6.4707    1.1019    0.0000 C.ar    1  UNL1        0.1271
     55 C          11.2139   -2.3316    0.0000 C.2     1  UNL1        0.3411
     56 C           7.4293    1.3868    0.0000 C.ar    1  UNL1        0.0221
     57 C          11.6622   -4.0047    0.0000 C.ar    1  UNL1        0.0464
     58 C           5.0565   -2.6082    0.0000 C.ar    1  UNL1       -0.0012
     59 C           9.8395   -4.6942    0.0000 C.ar    1  UNL1        0.1708
     60 C          12.6281   -3.7458    0.0000 C.ar    1  UNL1        0.0458
     61 C          11.2139    1.8499    0.0000 C.2     1  UNL1        0.3405
     62 C          11.5285   -4.9942    0.0000 C.ar    1  UNL1        0.1708
     63 C          12.1798   -2.0728    0.0000 C.2     1  UNL1        0.3405
     64 C          10.5946   -5.3475    0.0000 C.ar    1  UNL1        0.2019
     65 C          12.8869   -2.7799    0.0000 C.ar    1  UNL1        0.0740
     66 C           4.0830   -2.3793    0.0000 C.ar    1  UNL1       -0.0098
     67 C           5.3450   -3.5656    0.0000 C.ar    1  UNL1       -0.0513
     68 C          10.3479    2.3499    0.0000 C.ar    1  UNL1        0.0740
     69 C          13.3532   -4.4936    0.0000 C.ar    1  UNL1        0.1708
     70 C          13.8888   -2.4948    0.0000 C.ar    1  UNL1       -0.0017
     71 C          12.0799    2.3499    0.0000 C.2     1  UNL1        0.3401
     72 C          10.3479    3.3499    0.0000 C.ar    1  UNL1        0.0458
     73 C           3.3981   -3.1080    0.0000 C.ar    1  UNL1        0.1586
     74 C           4.6602   -4.2943    0.0000 C.ar    1  UNL1       -0.0162
     75 C          11.2139    3.8499    0.0000 C.ar    1  UNL1        0.0458
     76 C          12.0799    3.3499    0.0000 C.ar    1  UNL1        0.0740
     77 C          14.3614   -4.2318    0.0000 C.ar    1  UNL1        0.2012
     78 C          14.6310   -3.2257    0.0000 C.ar    1  UNL1        0.1628
     79 C           3.6867   -4.0655    0.0000 C.ar    1  UNL1        0.1582
     80 C           9.4539    1.8153    0.0000 C.ar    1  UNL1       -0.0017
     81 C           9.4539    3.8846    0.0000 C.ar    1  UNL1        0.1708
     82 C           8.5479    2.3291    0.0000 C.ar    1  UNL1        0.1628
     83 C          11.1978    4.8914    0.0000 C.ar    1  UNL1        0.1708
     84 C          12.9899    3.8568    0.0000 C.ar    1  UNL1       -0.0017
     85 C           8.5479    3.3707    0.0000 C.ar    1  UNL1        0.2012
     86 C          12.0959    5.4192    0.0000 C.ar    1  UNL1        0.2012
     87 C          12.9979    4.8984    0.0000 C.ar    1  UNL1        0.1628
     88 H           8.4065   -0.1464    0.0000 H       1  UNL1        0.0438
     89 H           8.8958    0.0981    0.0000 H       1  UNL1        0.0782
     90 H           9.8736   -1.1564    0.0000 H       1  UNL1        0.0811
     91 H          10.3712    0.2288    0.0000 H       1  UNL1        0.0812
     92 H          13.0009   -0.3609    0.0000 H       1  UNL1        0.0808
     93 H           5.1724    0.4649    0.0000 H       1  UNL1        0.0342
     94 H           4.6168   -0.1082    0.0000 H       1  UNL1        0.0342
     95 H           4.5375   -0.7341    0.0000 H       1  UNL1        0.0637
     96 H           6.0689   -2.4059    0.0000 H       1  UNL1        0.0811
     97 H          13.3253    0.1277    0.0000 H       1  UNL1        0.0736
     98 H          13.3253    1.0046    0.0000 H       1  UNL1        0.0736
     99 H           7.5735    1.9898    0.0000 H       1  UNL1        0.0691
    100 H           6.0617   -2.9105    0.0000 H       1  UNL1        0.2923
    101 H           9.5640    0.5576    0.0000 H       1  UNL1        0.2921
    102 H           3.5770   -1.0162    0.0000 H       1  UNL1        0.2100
    103 H           3.9041   -1.7857    0.0000 H       1  UNL1        0.0659
    104 H           5.9486   -3.7075    0.0000 H       1  UNL1        0.0623
    105 H           7.4913   -5.1702    0.0000 H       1  UNL1        0.2923
    106 H           6.4227   -4.4362    0.0000 H       1  UNL1        0.2924
    107 H           5.8889    2.3926    0.0000 H       1  UNL1        0.2921
    108 H          14.0423   -1.8942    0.0000 H       1  UNL1        0.0664
    109 H           8.7650   -5.6160    0.0000 H       1  UNL1        0.2923
    110 H           4.8391   -4.8879    0.0000 H       1  UNL1        0.0655
    111 H           9.4611    1.1953    0.0000 H       1  UNL1        0.0664
    112 H          12.2198   -6.2297    0.0000 H       1  UNL1        0.2923
    113 H          10.8941   -6.7312    0.0000 H       1  UNL1        0.2924
    114 H          13.5232    3.5406    0.0000 H       1  UNL1        0.0664
    115 H          13.5165   -5.9000    0.0000 H       1  UNL1        0.2923
    116 H           2.0000   -3.3309    0.0000 H       1  UNL1        0.2923
    117 H          15.6653   -4.7835    0.0000 H       1  UNL1        0.2924
    118 H          15.7541   -2.3636    0.0000 H       1  UNL1        0.2923
    119 H           2.3983   -4.6523    0.0000 H       1  UNL1        0.2923
    120 H           8.9322    5.2007    0.0000 H       1  UNL1        0.2923
    121 H           7.2358    2.8611    0.0000 H       1  UNL1        0.2923
    122 H          10.3189    6.0013    0.0000 H       1  UNL1        0.2923
    123 H           7.6862    4.4941    0.0000 H       1  UNL1        0.2924
    124 H          12.6278    6.7312    0.0000 H       1  UNL1        0.2924
    125 H          14.4016    5.0830    0.0000 H       1  UNL1        0.2923
@<TRIPOS>BOND
     1     1    33    1
     2     1    43    1
     3     2    34    1
     4     2    55    1
     5     3    39    1
     6     3    48    1
     7     4    36    1
     8     4    61    1
     9     5    40    1
    10     5    63    1
    11     6    44    1
    12     6   100    1
    13     7    45    1
    14     7   101    1
    15    47     8    1
    16     8   102    1
    17     9    43    2
    18    10    51    1
    19    10    71    1
    20    11    52    1
    21    11   105    1
    22    12    53    1
    23    12   106    1
    24    13    54    1
    25    13   107    1
    26    14    55    2
    27    15    59    1
    28    15   109    1
    29    16    62    1
    30    16   112    1
    31    17    64    1
    32    17   113    1
    33    18    61    2
    34    19    63    2
    35    20    69    1
    36    20   115    1
    37    21    73    1
    38    21   116    1
    39    22    71    2
    40    23    77    1
    41    23   117    1
    42    24    78    1
    43    24   118    1
    44    25    79    1
    45    25   119    1
    46    26    81    1
    47    26   120    1
    48    27    82    1
    49    27   121    1
    50    28    83    1
    51    28   122    1
    52    29    85    1
    53    29   123    1
    54    30    86    1
    55    30   124    1
    56    31    87    1
    57    31   125    1
    58    32    33    1
    59    32    35    1
    60    32    37    1
    61    32    88    1
    62    33    34    1
    63    33    89    1
    64    34    36    1
    65    34    90    1
    66    35    38   ar
    67    35    44   ar
    68    36    40    1
    69    36    91    1
    70    37    39   ar
    71    37    45   ar
    72    38    42   ar
    73    38    43    1
    74    39    41   ar
    75    40    51    1
    76    40    92    1
    77    41    46    1
    78    41    54   ar
    79    42    49    1
    80    42    52   ar
    81    44    53   ar
    82    45    56   ar
    83    46    47    1
    84    46    93    1
    85    46    94    1
    86    47    48    1
    87    47    95    1
    88    48    58    1
    89    48    96    1
    90    49    50   ar
    91    49    59   ar
    92    50    55    1
    93    50    57   ar
    94    51    97    1
    95    51    98    1
    96    52    53   ar
    97    54    56   ar
    98    56    99    1
    99    57    60    1
   100    57    62   ar
   101    58    66   ar
   102    58    67   ar
   103    59    64   ar
   104    60    65   ar
   105    60    69   ar
   106    61    68    1
   107    62    64   ar
   108    63    65    1
   109    65    70   ar
   110    66    73   ar
   111    66   103    1
   112    67    74   ar
   113    67   104    1
   114    68    72   ar
   115    68    80   ar
   116    69    77   ar
   117    70    78   ar
   118    70   108    1
   119    71    76    1
   120    72    75    1
   121    72    81   ar
   122    73    79   ar
   123    74    79   ar
   124    74   110    1
   125    75    76   ar
   126    75    83   ar
   127    76    84   ar
   128    77    78   ar
   129    80    82   ar
   130    80   111    1
   131    81    85   ar
   132    82    85   ar
   133    83    86   ar
   134    84    87   ar
   135    84   114    1
   136    86    87   ar
