@<TRIPOS>MOLECULE
IMPHY010543
 46 50 0 0 0
SMALL
GASTEIGER

@<TRIPOS>ATOM
      1 O           4.9420    1.6971    0.0000 O.3     1  UNL1       -0.4677
      2 O           6.6659    1.5285    0.0000 O.2     1  UNL1       -0.2505
      3 N           5.4068   -1.9047    0.0000 N.3     1  UNL1       -0.2903
      4 N           6.7907    0.4904    0.0000 N.2     1  UNL1       -0.2537
      5 C           7.2907   -1.0485    0.0000 C.3     1  UNL1        0.0520
      6 C           5.6579    0.1199    0.0000 C.3     1  UNL1        0.0778
      7 C           5.5237   -0.8696    0.0000 C.3     1  UNL1        0.0506
      8 C           3.8297   -0.7099    0.0000 C.3     1  UNL1       -0.0029
      9 C           6.4817   -0.4607    0.0000 C.2     1  UNL1        0.0480
     10 C           4.7222   -0.3077    0.0000 C.3     1  UNL1       -0.0247
     11 C           7.1978   -2.0859    0.0000 C.3     1  UNL1       -0.0244
     12 C           6.2495   -2.5169    0.0000 C.3     1  UNL1        0.0010
     13 C           3.7199   -1.6826    0.0000 C.2     1  UNL1       -0.0558
     14 C           8.0997   -0.4607    0.0000 C.ar    1  UNL1       -0.0095
     15 C           4.5002   -2.2738    0.0000 C.3     1  UNL1        0.0209
     16 C           7.7907    0.4904    0.0000 C.ar    1  UNL1        0.0680
     17 C           5.7553    1.1152    0.0000 C.2     1  UNL1        0.3117
     18 C           9.1151   -0.6929    0.0000 C.ar    1  UNL1       -0.0556
     19 C           2.8008   -2.0767    0.0000 C.2     1  UNL1       -0.0864
     20 C           8.4757    1.2751    0.0000 C.ar    1  UNL1       -0.0360
     21 C           9.8181    0.0758    0.0000 C.ar    1  UNL1       -0.0613
     22 C           9.4962    1.0664    0.0000 C.ar    1  UNL1       -0.0597
     23 C           2.0000   -1.4777    0.0000 C.3     1  UNL1       -0.0465
     24 C           5.0394    2.6923    0.0000 C.3     1  UNL1        0.0817
     25 H           5.1537    0.4807    0.0000 H       1  UNL1        0.0432
     26 H           5.1840   -0.0905    0.0000 H       1  UNL1        0.0525
     27 H           3.1428   -0.2092    0.0000 H       1  UNL1        0.0355
     28 H           5.1626    0.1287    0.0000 H       1  UNL1        0.0290
     29 H           4.3710    0.2033    0.0000 H       1  UNL1        0.0290
     30 H           7.3540   -2.6860    0.0000 H       1  UNL1        0.0290
     31 H           7.8157   -2.0348    0.0000 H       1  UNL1        0.0290
     32 H           5.8046   -2.9488    0.0000 H       1  UNL1        0.0427
     33 H           6.5989   -3.0292    0.0000 H       1  UNL1        0.0427
     34 H           4.0439   -2.6936    0.0000 H       1  UNL1        0.0473
     35 H           4.8322   -2.7973    0.0000 H       1  UNL1        0.0473
     36 H           9.2999   -1.2848    0.0000 H       1  UNL1        0.0621
     37 H           2.7274   -2.6923    0.0000 H       1  UNL1        0.0569
     38 H           8.2773    1.8625    0.0000 H       1  UNL1        0.0639
     39 H          10.4240   -0.0555    0.0000 H       1  UNL1        0.0618
     40 H           9.9093    1.5288    0.0000 H       1  UNL1        0.0618
     41 H           2.3713   -0.9813    0.0000 H       1  UNL1        0.0272
     42 H           1.5035   -1.1064    0.0000 H       1  UNL1        0.0272
     43 H           1.6287   -1.9742    0.0000 H       1  UNL1        0.0272
     44 H           5.6564    2.6320    0.0000 H       1  UNL1        0.0661
     45 H           5.0997    3.3094    0.0000 H       1  UNL1        0.0661
     46 H           4.4223    2.7527    0.0000 H       1  UNL1        0.0661
@<TRIPOS>BOND
     1     1    17    1
     2     1    24    1
     3     2    17    2
     4     3     7    1
     5     3    12    1
     6     3    15    1
     7     4     9    2
     8     4    16    1
     9     5     6    1
    10     5     9    1
    11     5    11    1
    12     5    14    1
    13     6     8    1
    14     6    17    1
    15     6    25    1
    16     7     9    1
    17     7    10    1
    18     7    26    1
    19     8    10    1
    20     8    13    1
    21     8    27    1
    22    10    28    1
    23    10    29    1
    24    11    12    1
    25    11    30    1
    26    11    31    1
    27    12    32    1
    28    12    33    1
    29    13    15    1
    30    13    19    2
    31    14    16   ar
    32    14    18   ar
    33    15    34    1
    34    15    35    1
    35    16    20   ar
    36    18    21   ar
    37    18    36    1
    38    19    23    1
    39    19    37    1
    40    20    22   ar
    41    20    38    1
    42    21    22   ar
    43    21    39    1
    44    22    40    1
    45    23    41    1
    46    23    42    1
    47    23    43    1
    48    24    44    1
    49    24    45    1
    50    24    46    1
