@<TRIPOS>MOLECULE
IMPHY005621
 33 36 0 0 0
SMALL
GASTEIGER

@<TRIPOS>ATOM
      1 N           4.5124    1.5903    0.0000 N.ar    1  UNL1       -0.3539
      2 N           8.3618   -1.0542    0.0000 N.ar    1  UNL1       -0.2595
      3 C           5.3181    1.0081    0.0000 C.ar    1  UNL1        0.0510
      4 C           5.0091    0.0571    0.0000 C.ar    1  UNL1        0.0083
      5 C           6.2962    1.2160    0.0000 C.ar    1  UNL1       -0.0188
      6 C           4.0150    0.0596    0.0000 C.ar    1  UNL1        0.0074
      7 C           6.9654    0.4729    0.0000 C.ar    1  UNL1       -0.0099
      8 C           6.6564   -0.4782    0.0000 C.ar    1  UNL1        0.0041
      9 C           3.7086    1.0053    0.0000 C.ar    1  UNL1        0.0475
     10 C           5.6782   -0.6861    0.0000 C.ar    1  UNL1       -0.0426
     11 C           7.3413   -1.2629    0.0000 C.ar    1  UNL1        0.0459
     12 C           6.6053    2.1671    0.0000 C.3     1  UNL1       -0.0372
     13 C           3.3334   -0.7199    0.0000 C.ar    1  UNL1       -0.0520
     14 C           7.9808    0.7051    0.0000 C.ar    1  UNL1       -0.0355
     15 C           2.6994    1.2371    0.0000 C.ar    1  UNL1       -0.0378
     16 C           2.3191   -0.5115    0.0000 C.ar    1  UNL1       -0.0611
     17 C           2.0000    0.4735    0.0000 C.ar    1  UNL1       -0.0598
     18 C           8.6837   -0.0636    0.0000 C.ar    1  UNL1        0.0285
     19 C           7.0213   -2.2103    0.0000 C.3     1  UNL1       -0.0218
     20 H           5.4866   -1.2757    0.0000 H       1  UNL1        0.0631
     21 H           4.5113    2.2103    0.0000 H       1  UNL1        0.1659
     22 H           7.1949    1.9755    0.0000 H       1  UNL1        0.0278
     23 H           6.7968    2.7567    0.0000 H       1  UNL1        0.0278
     24 H           6.0156    2.3587    0.0000 H       1  UNL1        0.0278
     25 H           3.5313   -1.3074    0.0000 H       1  UNL1        0.0624
     26 H           8.1655    1.2970    0.0000 H       1  UNL1        0.0639
     27 H           2.5152    1.8291    0.0000 H       1  UNL1        0.0638
     28 H           1.9056   -0.9735    0.0000 H       1  UNL1        0.0618
     29 H           1.3942    0.6053    0.0000 H       1  UNL1        0.0618
     30 H           9.2897    0.0677    0.0000 H       1  UNL1        0.0830
     31 H           6.4339   -2.0119    0.0000 H       1  UNL1        0.0293
     32 H           6.8229   -2.7977    0.0000 H       1  UNL1        0.0293
     33 H           7.6087   -2.4087    0.0000 H       1  UNL1        0.0293
@<TRIPOS>BOND
     1     1     3   ar
     2     1     9   ar
     3     1    21    1
     4     2    11   ar
     5     2    18   ar
     6     3     4   ar
     7     3     5   ar
     8     4     6   ar
     9     4    10   ar
    10     5     7   ar
    11     5    12    1
    12     6     9   ar
    13     6    13   ar
    14     7     8   ar
    15     7    14   ar
    16     8    10   ar
    17     8    11   ar
    18     9    15   ar
    19    10    20    1
    20    11    19    1
    21    12    22    1
    22    12    23    1
    23    12    24    1
    24    13    16   ar
    25    13    25    1
    26    14    18   ar
    27    14    26    1
    28    15    17   ar
    29    15    27    1
    30    16    17   ar
    31    16    28    1
    32    17    29    1
    33    18    30    1
    34    19    31    1
    35    19    32    1
    36    19    33    1
