@<TRIPOS>MOLECULE
IMPHY003654
 51 54 0 0 0
SMALL
GASTEIGER

@<TRIPOS>ATOM
      1 O           9.9229    0.0493    0.0000 O.2     1  UNL1       -0.2924
      2 O           2.0000   -2.5030    0.0000 O.2     1  UNL1       -0.2927
      3 C           6.5271   -0.9507    0.0000 C.3     1  UNL1       -0.0331
      4 C           5.6610   -0.4507    0.0000 C.3     1  UNL1       -0.0288
      5 C           7.3931   -0.4507    0.0000 C.3     1  UNL1       -0.0214
      6 C           7.3931    0.5493    0.0000 C.3     1  UNL1       -0.0006
      7 C           4.7510   -0.9575    0.0000 C.3     1  UNL1       -0.0072
      8 C           5.6610    0.5493    0.0000 C.3     1  UNL1       -0.0484
      9 C           6.5271    1.0493    0.0000 C.3     1  UNL1       -0.0430
     10 C           6.5431   -1.9922    0.0000 C.3     1  UNL1       -0.0459
     11 C           8.3393   -0.7554    0.0000 C.3     1  UNL1        0.0140
     12 C           4.7430   -1.9991    0.0000 C.2     1  UNL1       -0.0601
     13 C           5.6451   -2.5200    0.0000 C.3     1  UNL1       -0.0305
     14 C           8.3393    0.8540    0.0000 C.2     1  UNL1       -0.0030
     15 C           3.8242   -0.3935    0.0000 C.3     1  UNL1       -0.0367
     16 C           7.3931    1.5493    0.0000 C.3     1  UNL1       -0.0552
     17 C           4.7587    0.0424    0.0000 C.3     1  UNL1       -0.0556
     18 C           8.9229    0.0493    0.0000 C.2     1  UNL1        0.1598
     19 C           2.8763   -0.9214    0.0000 C.3     1  UNL1        0.0107
     20 C           3.8076   -2.5489    0.0000 C.2     1  UNL1       -0.0194
     21 C           8.6500    1.8046    0.0000 C.2     1  UNL1       -0.0801
     22 C           2.8680   -2.0064    0.0000 C.2     1  UNL1        0.1561
     23 C           7.9821    2.5489    0.0000 C.3     1  UNL1       -0.0461
     24 H           7.2664   -1.3700    0.0000 H       1  UNL1        0.0307
     25 H           6.3972   -0.0257    0.0000 H       1  UNL1        0.0312
     26 H           7.4830   -1.2959    0.0000 H       1  UNL1        0.0316
     27 H           5.4490    1.1319    0.0000 H       1  UNL1        0.0269
     28 H           5.0504    0.4416    0.0000 H       1  UNL1        0.0269
     29 H           6.9256    1.5243    0.0000 H       1  UNL1        0.0274
     30 H           6.1285    1.5243    0.0000 H       1  UNL1        0.0274
     31 H           6.7612   -2.5726    0.0000 H       1  UNL1        0.0271
     32 H           7.1523   -1.8767    0.0000 H       1  UNL1        0.0271
     33 H           8.0883   -1.3223    0.0000 H       1  UNL1        0.0348
     34 H           8.8767   -1.0647    0.0000 H       1  UNL1        0.0348
     35 H           5.2478   -2.9959    0.0000 H       1  UNL1        0.0310
     36 H           6.0460   -2.9928    0.0000 H       1  UNL1        0.0310
     37 H           4.2324    0.0732    0.0000 H       1  UNL1        0.0278
     38 H           3.4343    0.0886    0.0000 H       1  UNL1        0.0278
     39 H           8.0131    1.5493    0.0000 H       1  UNL1        0.0238
     40 H           7.3931    2.1693    0.0000 H       1  UNL1        0.0238
     41 H           6.7731    1.5493    0.0000 H       1  UNL1        0.0238
     42 H           5.3787    0.0377    0.0000 H       1  UNL1        0.0238
     43 H           4.7635    0.6624    0.0000 H       1  UNL1        0.0238
     44 H           4.1388    0.0472    0.0000 H       1  UNL1        0.0238
     45 H           2.6718   -0.3361    0.0000 H       1  UNL1        0.0345
     46 H           2.2647   -1.0228    0.0000 H       1  UNL1        0.0345
     47 H           3.8100   -3.1689    0.0000 H       1  UNL1        0.0652
     48 H           9.2566    1.9324    0.0000 H       1  UNL1        0.0573
     49 H           8.4436    2.9629    0.0000 H       1  UNL1        0.0272
     50 H           7.5681    3.0103    0.0000 H       1  UNL1        0.0272
     51 H           7.5207    2.1348    0.0000 H       1  UNL1        0.0272
@<TRIPOS>BOND
     1     1    18    2
     2     2    22    2
     3     3     4    1
     4     3     5    1
     5     3    10    1
     6     3    24    1
     7     4     7    1
     8     4     8    1
     9     4    25    1
    10     5     6    1
    11     5    11    1
    12     5    26    1
    13     6     9    1
    14     6    14    1
    15     6    16    1
    16     7    12    1
    17     7    15    1
    18     7    17    1
    19     8     9    1
    20     8    27    1
    21     8    28    1
    22     9    29    1
    23     9    30    1
    24    10    13    1
    25    10    31    1
    26    10    32    1
    27    11    18    1
    28    11    33    1
    29    11    34    1
    30    12    13    1
    31    12    20    2
    32    13    35    1
    33    13    36    1
    34    14    18    1
    35    14    21    2
    36    15    19    1
    37    15    37    1
    38    15    38    1
    39    16    39    1
    40    16    40    1
    41    16    41    1
    42    17    42    1
    43    17    43    1
    44    17    44    1
    45    19    22    1
    46    19    45    1
    47    19    46    1
    48    20    22    1
    49    20    47    1
    50    21    23    1
    51    21    48    1
    52    23    49    1
    53    23    50    1
    54    23    51    1
