@<TRIPOS>MOLECULE
IMPHY009250
 101 106 0 0 0
SMALL
GASTEIGER

@<TRIPOS>ATOM
      1 O           2.5357   -2.6896    0.0000 O.3     1  UNL1       -0.3912
      2 O          11.4608    0.3969    0.0000 O.3     1  UNL1       -0.4217
      3 O          10.6064   -1.1097    0.0000 O.2     1  UNL1       -0.2498
      4 O          11.4762   -1.6030    0.0000 O.3     1  UNL1       -0.4914
      5 O          15.8024   -1.0696    0.0000 O.3     1  UNL1       -0.4644
      6 O          14.9480   -2.5763    0.0000 O.2     1  UNL1       -0.2450
      7 C           7.0628   -1.1372    0.0000 C.3     1  UNL1       -0.0231
      8 C           7.9288   -0.6372    0.0000 C.3     1  UNL1       -0.0232
      9 C           6.1968   -0.6372    0.0000 C.3     1  UNL1       -0.0294
     10 C           7.9288    0.3628    0.0000 C.3     1  UNL1       -0.0307
     11 C           5.2868   -1.1441    0.0000 C.3     1  UNL1       -0.0252
     12 C           8.8228    0.8974    0.0000 C.3     1  UNL1       -0.0154
     13 C           5.2787   -2.1857    0.0000 C.3     1  UNL1       -0.0278
     14 C           9.7288    0.3836    0.0000 C.3     1  UNL1        0.0718
     15 C           7.0789   -2.1788    0.0000 C.3     1  UNL1       -0.0466
     16 C           6.1968    0.3628    0.0000 C.3     1  UNL1       -0.0489
     17 C           8.8228   -1.1719    0.0000 C.3     1  UNL1       -0.0458
     18 C           7.0628    0.8628    0.0000 C.3     1  UNL1       -0.0491
     19 C           6.1808   -2.7065    0.0000 C.3     1  UNL1       -0.0486
     20 C           9.7288   -0.6581    0.0000 C.3     1  UNL1       -0.0364
     21 C           4.3433   -2.7354    0.0000 C.3     1  UNL1       -0.0056
     22 C           9.0329    1.9113    0.0000 C.3     1  UNL1       -0.0163
     23 C           4.3599   -0.5800    0.0000 C.3     1  UNL1       -0.0447
     24 C           7.7056   -1.9033    0.0000 C.3     1  UNL1       -0.0588
     25 C           8.2709   -1.5769    0.0000 C.3     1  UNL1       -0.0588
     26 C          10.4911    1.0843    0.0000 C.3     1  UNL1       -0.0364
     27 C          10.0619    2.0266    0.0000 C.3     1  UNL1       -0.0452
     28 C           5.2945   -0.1441    0.0000 C.3     1  UNL1       -0.0590
     29 C           3.4037   -2.1929    0.0000 C.3     1  UNL1        0.0606
     30 C           3.4120   -1.1080    0.0000 C.3     1  UNL1       -0.0258
     31 C          10.5987   -0.1097    0.0000 C.2     1  UNL1        0.3190
     32 C           3.8467   -3.6034    0.0000 C.3     1  UNL1       -0.0572
     33 C           4.8466   -3.5995    0.0000 C.3     1  UNL1       -0.0572
     34 C           8.3593    2.6505    0.0000 C.2     1  UNL1       -0.0763
     35 C           8.6626    3.6034    0.0000 C.3     1  UNL1       -0.0438
     36 C           7.3824    2.4367    0.0000 C.2     1  UNL1       -0.0994
     37 C          12.3307   -0.0964    0.0000 C.ar    1  UNL1        0.1731
     38 C          12.3384   -1.0964    0.0000 C.ar    1  UNL1        0.1630
     39 C          13.1928    0.4103    0.0000 C.ar    1  UNL1       -0.0148
     40 C          13.2082   -1.5897    0.0000 C.ar    1  UNL1       -0.0023
     41 C          14.0627   -0.0830    0.0000 C.ar    1  UNL1       -0.0441
     42 C          14.0704   -1.0830    0.0000 C.ar    1  UNL1        0.0627
     43 C          11.4840   -2.6030    0.0000 C.3     1  UNL1        0.0790
     44 C          14.9402   -1.5763    0.0000 C.2     1  UNL1        0.3390
     45 C          16.6722   -1.5630    0.0000 C.3     1  UNL1        0.0820
     46 H           6.9329   -0.2122    0.0000 H       1  UNL1        0.0312
     47 H           7.9223    1.2127    0.0000 H       1  UNL1        0.0309
     48 H           8.1300    1.3900    0.0000 H       1  UNL1        0.0320
     49 H           5.2820   -3.0357    0.0000 H       1  UNL1        0.0312
     50 H           7.2969   -2.7592    0.0000 H       1  UNL1        0.0271
     51 H           7.6880   -2.0632    0.0000 H       1  UNL1        0.0271
     52 H           5.9847    0.9454    0.0000 H       1  UNL1        0.0268
     53 H           5.5862    0.2551    0.0000 H       1  UNL1        0.0268
     54 H           8.4182   -1.6417    0.0000 H       1  UNL1        0.0271
     55 H           9.2164   -1.6509    0.0000 H       1  UNL1        0.0271
     56 H           7.4613    1.3377    0.0000 H       1  UNL1        0.0268
     57 H           6.6643    1.3377    0.0000 H       1  UNL1        0.0268
     58 H           5.7835   -3.1825    0.0000 H       1  UNL1        0.0268
     59 H           6.5818   -3.1794    0.0000 H       1  UNL1        0.0268
     60 H           9.9379   -1.2418    0.0000 H       1  UNL1        0.0276
     61 H          10.3397   -0.5520    0.0000 H       1  UNL1        0.0276
     62 H           9.2513    2.4916    0.0000 H       1  UNL1        0.0348
     63 H           4.7681   -0.1134    0.0000 H       1  UNL1        0.0271
     64 H           3.9700   -0.0980    0.0000 H       1  UNL1        0.0271
     65 H           7.2306   -2.3018    0.0000 H       1  UNL1        0.0235
     66 H           8.1041   -2.3782    0.0000 H       1  UNL1        0.0235
     67 H           8.1805   -1.5048    0.0000 H       1  UNL1        0.0235
     68 H           7.6884   -1.7890    0.0000 H       1  UNL1        0.0235
     69 H           8.4830   -2.1595    0.0000 H       1  UNL1        0.0235
     70 H           8.8535   -1.3648    0.0000 H       1  UNL1        0.0235
     71 H          10.8604    0.5863    0.0000 H       1  UNL1        0.0276
     72 H          11.0252    1.3992    0.0000 H       1  UNL1        0.0276
     73 H          10.6500    2.2229    0.0000 H       1  UNL1        0.0271
     74 H           9.9285    2.6321    0.0000 H       1  UNL1        0.0271
     75 H           5.9145   -0.1489    0.0000 H       1  UNL1        0.0235
     76 H           5.2993    0.4759    0.0000 H       1  UNL1        0.0235
     77 H           4.6745   -0.1393    0.0000 H       1  UNL1        0.0235
     78 H           3.4025   -2.8129    0.0000 H       1  UNL1        0.0599
     79 H           3.2075   -0.5227    0.0000 H       1  UNL1        0.0290
     80 H           2.8004   -1.2093    0.0000 H       1  UNL1        0.0290
     81 H           3.3085   -3.2954    0.0000 H       1  UNL1        0.0236
     82 H           3.5387   -4.1415    0.0000 H       1  UNL1        0.0236
     83 H           4.3848   -3.9113    0.0000 H       1  UNL1        0.0236
     84 H           4.3109   -3.9116    0.0000 H       1  UNL1        0.0236
     85 H           5.1587   -4.1352    0.0000 H       1  UNL1        0.0236
     86 H           5.3824   -3.2874    0.0000 H       1  UNL1        0.0236
     87 H           2.0000   -2.3775    0.0000 H       1  UNL1        0.2098
     88 H           9.2534    3.4153    0.0000 H       1  UNL1        0.0274
     89 H           8.8507    4.1941    0.0000 H       1  UNL1        0.0274
     90 H           8.0718    3.7914    0.0000 H       1  UNL1        0.0274
     91 H           6.9648    2.8950    0.0000 H       1  UNL1        0.0534
     92 H           7.1944    1.8459    0.0000 H       1  UNL1        0.0534
     93 H          13.1880    1.0303    0.0000 H       1  UNL1        0.0656
     94 H          13.2130   -2.2096    0.0000 H       1  UNL1        0.0663
     95 H          14.5972    0.2311    0.0000 H       1  UNL1        0.0627
     96 H          10.8640   -2.6078    0.0000 H       1  UNL1        0.0660
     97 H          11.4887   -3.2230    0.0000 H       1  UNL1        0.0660
     98 H          12.1039   -2.5982    0.0000 H       1  UNL1        0.0660
     99 H          16.3664   -2.1023    0.0000 H       1  UNL1        0.0661
    100 H          17.2116   -1.8688    0.0000 H       1  UNL1        0.0661
    101 H          16.9781   -1.0236    0.0000 H       1  UNL1        0.0661
@<TRIPOS>BOND
     1    29     1    1
     2     1    87    1
     3     2    31    1
     4     2    37    1
     5     3    31    2
     6     4    38    1
     7     4    43    1
     8     5    44    1
     9     5    45    1
    10     6    44    2
    11     7     8    1
    12     7     9    1
    13     7    15    1
    14     7    24    1
    15     8    10    1
    16     8    17    1
    17     8    25    1
    18     9    11    1
    19     9    16    1
    20     9    46    1
    21    10    12    1
    22    10    18    1
    23    10    47    1
    24    11    13    1
    25    11    23    1
    26    11    28    1
    27    12    14    1
    28    12    22    1
    29    12    48    1
    30    13    19    1
    31    13    21    1
    32    13    49    1
    33    14    20    1
    34    14    26    1
    35    14    31    1
    36    15    19    1
    37    15    50    1
    38    15    51    1
    39    16    18    1
    40    16    52    1
    41    16    53    1
    42    17    20    1
    43    17    54    1
    44    17    55    1
    45    18    56    1
    46    18    57    1
    47    19    58    1
    48    19    59    1
    49    20    60    1
    50    20    61    1
    51    21    29    1
    52    21    32    1
    53    21    33    1
    54    22    27    1
    55    22    34    1
    56    22    62    1
    57    23    30    1
    58    23    63    1
    59    23    64    1
    60    24    65    1
    61    24    66    1
    62    24    67    1
    63    25    68    1
    64    25    69    1
    65    25    70    1
    66    26    27    1
    67    26    71    1
    68    26    72    1
    69    27    73    1
    70    27    74    1
    71    28    75    1
    72    28    76    1
    73    28    77    1
    74    29    30    1
    75    29    78    1
    76    30    79    1
    77    30    80    1
    78    32    81    1
    79    32    82    1
    80    32    83    1
    81    33    84    1
    82    33    85    1
    83    33    86    1
    84    34    35    1
    85    34    36    2
    86    35    88    1
    87    35    89    1
    88    35    90    1
    89    36    91    1
    90    36    92    1
    91    37    38   ar
    92    37    39   ar
    93    38    40   ar
    94    39    41   ar
    95    39    93    1
    96    40    42   ar
    97    40    94    1
    98    41    42   ar
    99    41    95    1
   100    42    44    1
   101    43    96    1
   102    43    97    1
   103    43    98    1
   104    45    99    1
   105    45   100    1
   106    45   101    1
