@<TRIPOS>MOLECULE
IMPHY008437
 81 85 0 0 0
SMALL
GASTEIGER

@<TRIPOS>ATOM
      1 O           2.5357   -2.1612    0.0000 O.3     1  UNL1       -0.3908
      2 O          11.5367    3.0355    0.0000 O.3     1  UNL1       -0.3912
      3 O          11.4608    0.9253    0.0000 O.3     1  UNL1       -0.4802
      4 O          10.6064   -0.5814    0.0000 O.2     1  UNL1       -0.2504
      5 O           4.3500   -3.9391    0.0000 O.2     1  UNL1       -0.3004
      6 C           7.0628   -0.6089    0.0000 C.3     1  UNL1       -0.0194
      7 C           6.1968   -0.1089    0.0000 C.3     1  UNL1       -0.0257
      8 C           5.2868   -0.6158    0.0000 C.3     1  UNL1       -0.0246
      9 C           7.9288   -0.1089    0.0000 C.3     1  UNL1       -0.0051
     10 C           5.2787   -1.6574    0.0000 C.3     1  UNL1       -0.0211
     11 C           7.0789   -1.6504    0.0000 C.3     1  UNL1       -0.0463
     12 C           7.9288    0.8911    0.0000 C.2     1  UNL1       -0.0629
     13 C           6.1808   -2.1782    0.0000 C.3     1  UNL1       -0.0482
     14 C           8.8228    1.4258    0.0000 C.3     1  UNL1       -0.0030
     15 C           6.1968    0.8911    0.0000 C.3     1  UNL1       -0.0306
     16 C           8.8228   -0.6436    0.0000 C.3     1  UNL1       -0.0424
     17 C           9.7288    0.9119    0.0000 C.3     1  UNL1        0.0764
     18 C           4.3433   -2.2071    0.0000 C.3     1  UNL1        0.0523
     19 C           4.3599   -0.0517    0.0000 C.3     1  UNL1       -0.0447
     20 C           9.7288   -0.1297    0.0000 C.3     1  UNL1       -0.0358
     21 C           7.7056   -1.3750    0.0000 C.3     1  UNL1       -0.0585
     22 C           7.0628    1.3911    0.0000 C.2     1  UNL1       -0.0836
     23 C           5.2945    0.3842    0.0000 C.3     1  UNL1       -0.0590
     24 C           8.2709   -1.0486    0.0000 C.3     1  UNL1       -0.0553
     25 C           3.4037   -1.6646    0.0000 C.3     1  UNL1        0.0673
     26 C           3.4120   -0.5796    0.0000 C.3     1  UNL1       -0.0254
     27 C           8.7977    2.5104    0.0000 C.3     1  UNL1       -0.0379
     28 C          10.6726    1.4471    0.0000 C.3     1  UNL1       -0.0100
     29 C           9.7288    3.0674    0.0000 C.3     1  UNL1       -0.0083
     30 C          10.6726    2.5321    0.0000 C.3     1  UNL1        0.0614
     31 C           4.8466   -3.0712    0.0000 C.3     1  UNL1       -0.0504
     32 C          10.5987    0.4186    0.0000 C.2     1  UNL1        0.3116
     33 C           3.8467   -3.0750    0.0000 C.2     1  UNL1        0.1289
     34 C          10.2188    3.9391    0.0000 C.3     1  UNL1       -0.0574
     35 C           9.2188    3.9276    0.0000 C.3     1  UNL1       -0.0574
     36 H           6.7337    0.2011    0.0000 H       1  UNL1        0.0315
     37 H           5.2811   -2.2774    0.0000 H       1  UNL1        0.0316
     38 H           7.2969   -2.2308    0.0000 H       1  UNL1        0.0271
     39 H           7.6880   -1.5349    0.0000 H       1  UNL1        0.0271
     40 H           5.7835   -2.6541    0.0000 H       1  UNL1        0.0269
     41 H           6.5818   -2.6511    0.0000 H       1  UNL1        0.0269
     42 H           9.3549    1.7440    0.0000 H       1  UNL1        0.0357
     43 H           5.9847    1.4737    0.0000 H       1  UNL1        0.0310
     44 H           5.5862    0.7834    0.0000 H       1  UNL1        0.0310
     45 H           8.4182   -1.1134    0.0000 H       1  UNL1        0.0274
     46 H           9.2164   -1.1226    0.0000 H       1  UNL1        0.0274
     47 H           4.7681    0.4150    0.0000 H       1  UNL1        0.0271
     48 H           3.9700    0.4304    0.0000 H       1  UNL1        0.0271
     49 H           9.9379   -0.7134    0.0000 H       1  UNL1        0.0276
     50 H          10.3397   -0.0236    0.0000 H       1  UNL1        0.0276
     51 H           7.2306   -1.7735    0.0000 H       1  UNL1        0.0235
     52 H           8.1041   -1.8499    0.0000 H       1  UNL1        0.0235
     53 H           8.1805   -0.9764    0.0000 H       1  UNL1        0.0235
     54 H           7.0628    2.0111    0.0000 H       1  UNL1        0.0572
     55 H           5.9145    0.3794    0.0000 H       1  UNL1        0.0235
     56 H           5.2993    1.0042    0.0000 H       1  UNL1        0.0235
     57 H           4.6745    0.3890    0.0000 H       1  UNL1        0.0235
     58 H           7.6884   -1.2607    0.0000 H       1  UNL1        0.0238
     59 H           8.4830   -1.6312    0.0000 H       1  UNL1        0.0238
     60 H           8.8535   -0.8365    0.0000 H       1  UNL1        0.0238
     61 H           3.4025   -2.2846    0.0000 H       1  UNL1        0.0603
     62 H           3.2075    0.0057    0.0000 H       1  UNL1        0.0290
     63 H           2.8004   -0.6810    0.0000 H       1  UNL1        0.0290
     64 H           8.5752    3.0892    0.0000 H       1  UNL1        0.0277
     65 H           8.1894    2.3903    0.0000 H       1  UNL1        0.0277
     66 H          10.8817    0.8634    0.0000 H       1  UNL1        0.0301
     67 H          11.2835    1.5532    0.0000 H       1  UNL1        0.0301
     68 H          11.2101    2.2232    0.0000 H       1  UNL1        0.0599
     69 H           4.3109   -3.3832    0.0000 H       1  UNL1        0.0240
     70 H           5.1587   -3.6069    0.0000 H       1  UNL1        0.0240
     71 H           5.3824   -2.7591    0.0000 H       1  UNL1        0.0240
     72 H           3.2267   -3.0774    0.0000 H       1  UNL1        0.1033
     73 H          10.7593    3.6354    0.0000 H       1  UNL1        0.0236
     74 H          10.5226    4.4796    0.0000 H       1  UNL1        0.0236
     75 H           9.6783    4.2429    0.0000 H       1  UNL1        0.0236
     76 H           9.7522    4.2438    0.0000 H       1  UNL1        0.0236
     77 H           8.9027    4.4609    0.0000 H       1  UNL1        0.0236
     78 H           8.6855    3.6114    0.0000 H       1  UNL1        0.0236
     79 H           2.0000   -1.8492    0.0000 H       1  UNL1        0.2098
     80 H          12.0748    2.7275    0.0000 H       1  UNL1        0.2098
     81 H          12.0001    0.6194    0.0000 H       1  UNL1        0.2951
@<TRIPOS>BOND
     1     1    25    1
     2     1    79    1
     3     2    30    1
     4     2    80    1
     5     3    32    1
     6     3    81    1
     7     4    32    2
     8     5    33    2
     9     6     7    1
    10     6     9    1
    11     6    11    1
    12     6    21    1
    13     7     8    1
    14     7    15    1
    15     7    36    1
    16     8    10    1
    17     8    19    1
    18     8    23    1
    19     9    12    1
    20     9    16    1
    21     9    24    1
    22    10    13    1
    23    10    18    1
    24    10    37    1
    25    11    13    1
    26    11    38    1
    27    11    39    1
    28    12    14    1
    29    12    22    2
    30    13    40    1
    31    13    41    1
    32    14    17    1
    33    14    27    1
    34    14    42    1
    35    15    22    1
    36    15    43    1
    37    15    44    1
    38    16    20    1
    39    16    45    1
    40    16    46    1
    41    17    20    1
    42    17    28    1
    43    17    32    1
    44    18    25    1
    45    18    31    1
    46    18    33    1
    47    19    26    1
    48    19    47    1
    49    19    48    1
    50    20    49    1
    51    20    50    1
    52    21    51    1
    53    21    52    1
    54    21    53    1
    55    22    54    1
    56    23    55    1
    57    23    56    1
    58    23    57    1
    59    24    58    1
    60    24    59    1
    61    24    60    1
    62    25    26    1
    63    25    61    1
    64    26    62    1
    65    26    63    1
    66    27    29    1
    67    27    64    1
    68    27    65    1
    69    28    30    1
    70    28    66    1
    71    28    67    1
    72    29    30    1
    73    29    34    1
    74    29    35    1
    75    30    68    1
    76    31    69    1
    77    31    70    1
    78    31    71    1
    79    33    72    1
    80    34    73    1
    81    34    74    1
    82    34    75    1
    83    35    76    1
    84    35    77    1
    85    35    78    1
