@<TRIPOS>MOLECULE
IMPHY012498
 26 29 0 0 0
SMALL
GASTEIGER

@<TRIPOS>ATOM
      1 O           4.6660   -2.2846    0.0000 O.2     1  UNL1       -0.2850
      2 N           4.6500    1.7569    0.0000 N.ar    1  UNL1       -0.2543
      3 N           6.3903   -1.2816    0.0000 N.ar    1  UNL1       -0.2510
      4 C           5.5321    0.2154    0.0000 C.ar    1  UNL1        0.0373
      5 C           4.6660    0.7154    0.0000 C.ar    1  UNL1        0.0815
      6 C           3.8000    0.2154    0.0000 C.ar    1  UNL1        0.0119
      7 C           3.8000   -0.7846    0.0000 C.ar    1  UNL1        0.0330
      8 C           5.5321   -0.7846    0.0000 C.ar    1  UNL1        0.1207
      9 C           6.4421    0.7222    0.0000 C.ar    1  UNL1       -0.0108
     10 C           4.6660   -1.2846    0.0000 C.2     1  UNL1        0.2125
     11 C           2.9061    0.7500    0.0000 C.ar    1  UNL1       -0.0519
     12 C           2.9061   -1.3193    0.0000 C.ar    1  UNL1       -0.0502
     13 C           6.4501    1.7638    0.0000 C.ar    1  UNL1       -0.0357
     14 C           7.2814    0.1940    0.0000 C.ar    1  UNL1       -0.0357
     15 C           5.5480    2.2846    0.0000 C.ar    1  UNL1        0.0289
     16 C           2.0000    0.2362    0.0000 C.ar    1  UNL1       -0.0611
     17 C           7.2558   -0.7974    0.0000 C.ar    1  UNL1        0.0290
     18 C           2.0000   -0.8054    0.0000 C.ar    1  UNL1       -0.0610
     19 H           2.9132    1.3700    0.0000 H       1  UNL1        0.0624
     20 H           2.9132   -1.9392    0.0000 H       1  UNL1        0.0625
     21 H           6.9882    2.0717    0.0000 H       1  UNL1        0.0639
     22 H           7.8280    0.4867    0.0000 H       1  UNL1        0.0639
     23 H           5.5456    2.9046    0.0000 H       1  UNL1        0.0830
     24 H           7.7865   -1.1179    0.0000 H       1  UNL1        0.0830
     25 H           1.4643    0.5483    0.0000 H       1  UNL1        0.0618
     26 H           1.4643   -1.1175    0.0000 H       1  UNL1        0.0618
@<TRIPOS>BOND
     1     1    10    2
     2     2     5   ar
     3     2    15   ar
     4     3     8   ar
     5     3    17   ar
     6     4     5   ar
     7     4     8   ar
     8     4     9   ar
     9     5     6    1
    10     6     7   ar
    11     6    11   ar
    12     7    10    1
    13     7    12   ar
    14     8    10    1
    15     9    13   ar
    16     9    14   ar
    17    11    16   ar
    18    11    19    1
    19    12    18   ar
    20    12    20    1
    21    13    15   ar
    22    13    21    1
    23    14    17   ar
    24    14    22    1
    25    15    23    1
    26    16    18   ar
    27    16    25    1
    28    17    24    1
    29    18    26    1
