@<TRIPOS>MOLECULE
IMPHY003173
 53 55 0 0 0
SMALL
GASTEIGER

@<TRIPOS>ATOM
      1 O           5.1350   -2.4050    0.0000 O.3     1  UNL1       -0.3313
      2 O           5.1350   -5.4050    0.0000 O.3     1  UNL1       -0.3864
      3 O           3.4030   -4.4050    0.0000 O.3     1  UNL1       -0.3865
      4 O           6.8671   -2.4050    0.0000 O.3     1  UNL1       -0.4606
      5 O           6.8671   -4.4050    0.0000 O.3     1  UNL1       -0.3829
      6 O           2.5369   -2.9050    0.0000 O.3     1  UNL1       -0.3924
      7 O           5.1350    0.5950    0.0000 O.3     1  UNL1       -0.5058
      8 O           8.5991    0.5950    0.0000 O.3     1  UNL1       -0.5058
      9 O           6.0010    2.0950    0.0000 O.2     1  UNL1       -0.2870
     10 O          11.1972    5.0950    0.0000 O.3     1  UNL1       -0.5068
     11 C           4.2690   -3.9050    0.0000 C.3     1  UNL1        0.1120
     12 C           5.1350   -4.4050    0.0000 C.3     1  UNL1        0.1152
     13 C           4.2690   -2.9050    0.0000 C.3     1  UNL1        0.1140
     14 C           6.0010   -3.9050    0.0000 C.3     1  UNL1        0.1454
     15 C           6.0010   -2.9050    0.0000 C.3     1  UNL1        0.2308
     16 C           3.4030   -2.4050    0.0000 C.3     1  UNL1        0.0731
     17 C           6.8671   -1.4050    0.0000 C.ar    1  UNL1        0.1310
     18 C           7.7331   -0.9050    0.0000 C.ar    1  UNL1        0.0226
     19 C           6.0010   -0.9050    0.0000 C.ar    1  UNL1        0.0226
     20 C           6.0010    0.0950    0.0000 C.ar    1  UNL1        0.1346
     21 C           7.7331    0.0950    0.0000 C.ar    1  UNL1        0.1346
     22 C           6.8671    0.5950    0.0000 C.ar    1  UNL1        0.1045
     23 C           6.8671    1.5950    0.0000 C.2     1  UNL1        0.1931
     24 C           7.7331    2.0950    0.0000 C.2     1  UNL1       -0.0135
     25 C           7.7331    3.0950    0.0000 C.2     1  UNL1       -0.0510
     26 C           8.5991    3.5950    0.0000 C.ar    1  UNL1       -0.0247
     27 C           9.4651    3.0950    0.0000 C.ar    1  UNL1       -0.0511
     28 C           8.5991    4.5950    0.0000 C.ar    1  UNL1       -0.0511
     29 C          10.3312    3.5950    0.0000 C.ar    1  UNL1       -0.0196
     30 C           9.4651    5.0950    0.0000 C.ar    1  UNL1       -0.0196
     31 C          10.3312    4.5950    0.0000 C.ar    1  UNL1        0.1169
     32 H           3.7320   -3.5950    0.0000 H       1  UNL1        0.0647
     33 H           5.6720   -4.7150    0.0000 H       1  UNL1        0.0648
     34 H           4.2690   -2.2850    0.0000 H       1  UNL1        0.0647
     35 H           6.5380   -3.5950    0.0000 H       1  UNL1        0.0683
     36 H           6.0010   -2.2850    0.0000 H       1  UNL1        0.1084
     37 H           3.8015   -1.9300    0.0000 H       1  UNL1        0.0584
     38 H           3.0044   -1.9300    0.0000 H       1  UNL1        0.0584
     39 H           4.5981   -5.7150    0.0000 H       1  UNL1        0.2100
     40 H           3.4030   -5.0250    0.0000 H       1  UNL1        0.2100
     41 H           6.8671   -5.0250    0.0000 H       1  UNL1        0.2102
     42 H           2.0000   -2.5950    0.0000 H       1  UNL1        0.2095
     43 H           8.2700   -1.2150    0.0000 H       1  UNL1        0.0691
     44 H           5.4641   -1.2150    0.0000 H       1  UNL1        0.0691
     45 H           4.5981    0.2850    0.0000 H       1  UNL1        0.2922
     46 H           9.1360    0.2850    0.0000 H       1  UNL1        0.2922
     47 H           8.2700    1.7850    0.0000 H       1  UNL1        0.0656
     48 H           7.1962    3.4050    0.0000 H       1  UNL1        0.0625
     49 H           9.4651    2.4750    0.0000 H       1  UNL1        0.0625
     50 H           8.0622    4.9050    0.0000 H       1  UNL1        0.0625
     51 H          10.8681    3.2850    0.0000 H       1  UNL1        0.0654
     52 H           9.4651    5.7150    0.0000 H       1  UNL1        0.0654
     53 H          11.1972    5.7150    0.0000 H       1  UNL1        0.2921
@<TRIPOS>BOND
     1     1    13    1
     2     1    15    1
     3    12     2    1
     4     2    39    1
     5    11     3    1
     6     3    40    1
     7    15     4    1
     8     4    17    1
     9    14     5    1
    10     5    41    1
    11     6    16    1
    12     6    42    1
    13     7    20    1
    14     7    45    1
    15     8    21    1
    16     8    46    1
    17     9    23    2
    18    10    31    1
    19    10    53    1
    20    11    12    1
    21    11    13    1
    22    11    32    1
    23    12    14    1
    24    12    33    1
    25    13    16    1
    26    13    34    1
    27    14    15    1
    28    14    35    1
    29    15    36    1
    30    16    37    1
    31    16    38    1
    32    17    18   ar
    33    17    19   ar
    34    18    21   ar
    35    18    43    1
    36    19    20   ar
    37    19    44    1
    38    20    22   ar
    39    21    22   ar
    40    22    23    1
    41    23    24    1
    42    24    25    2
    43    24    47    1
    44    25    26    1
    45    25    48    1
    46    26    27   ar
    47    26    28   ar
    48    27    29   ar
    49    27    49    1
    50    28    30   ar
    51    28    50    1
    52    29    31   ar
    53    29    51    1
    54    30    31   ar
    55    30    52    1
