@<TRIPOS>MOLECULE
IMPHY001693
 81 90 0 0 0
SMALL
GASTEIGER

@<TRIPOS>ATOM
      1 O           4.9400    2.6232    0.0000 O.3     1  UNL1       -0.4760
      2 O           7.9881    0.9765    0.0000 O.3     1  UNL1       -0.3819
      3 O           5.1345   -3.9257    0.0000 O.3     1  UNL1       -0.4760
      4 O           4.7087    0.1682    0.0000 O.2     1  UNL1       -0.2883
      5 O           7.2629   -5.1708    0.0000 O.2     1  UNL1       -0.4956
      6 O           4.7087    4.9725    0.0000 O.3     1  UNL1       -0.5033
      7 O           2.9067   -3.1447    0.0000 O.3     1  UNL1       -0.4914
      8 N           8.8693    1.6193    0.0000 N.3     1  UNL1       -0.2990
      9 N           7.7018   -0.7863    0.0000 N.3     1  UNL1       -0.2914
     10 C           6.3984    2.0948    0.0000 C.3     1  UNL1        0.0785
     11 C           7.2220    1.6193    0.0000 C.3     1  UNL1        0.1140
     12 C           8.0457    2.0948    0.0000 C.3     1  UNL1        0.0474
     13 C           5.5747    1.6193    0.0000 C.3     1  UNL1        0.1747
     14 C           6.9479    2.7923    0.0000 C.3     1  UNL1       -0.0235
     15 C           6.3984    3.0459    0.0000 C.ar    1  UNL1        0.0144
     16 C           6.2286   -2.8262    0.0000 C.3     1  UNL1        0.0679
     17 C           6.3984   -0.8073    0.0000 C.3     1  UNL1        0.0403
     18 C           7.2220    0.6682    0.0000 C.2     1  UNL1       -0.0422
     19 C           6.3984    0.1927    0.0000 C.2     1  UNL1        0.0148
     20 C           8.0457    3.0459    0.0000 C.3     1  UNL1       -0.0086
     21 C           5.8279   -2.0338    0.0000 C.3     1  UNL1       -0.0157
     22 C           8.3005    2.7923    0.0000 C.3     1  UNL1        0.0000
     23 C           7.2220    3.5214    0.0000 C.ar    1  UNL1       -0.0381
     24 C           6.9233   -1.3325    0.0000 C.3     1  UNL1        0.0372
     25 C           5.5747    0.6682    0.0000 C.2     1  UNL1        0.2017
     26 C           7.0071   -2.2799    0.0000 C.2     1  UNL1       -0.0375
     27 C           5.5747    3.5214    0.0000 C.ar    1  UNL1        0.1669
     28 C           6.3124   -3.7736    0.0000 C.3     1  UNL1        0.1701
     29 C           5.3662   -2.4251    0.0000 C.ar    1  UNL1        0.0154
     30 C           6.0609   -0.9314    0.0000 C.3     1  UNL1       -0.0077
     31 C           5.2824   -1.4777    0.0000 C.ar    1  UNL1       -0.0377
     32 C           4.5877   -2.9714    0.0000 C.ar    1  UNL1        0.1674
     33 C           9.5505    0.8871    0.0000 C.3     1  UNL1       -0.0124
     34 C           7.2220    4.4725    0.0000 C.ar    1  UNL1       -0.0546
     35 C           7.8695   -2.6810    0.0000 C.2     1  UNL1       -0.0568
     36 C           7.1748   -4.1747    0.0000 C.2     1  UNL1        0.1388
     37 C           5.5747    4.4725    0.0000 C.ar    1  UNL1        0.1588
     38 C           8.6529   -0.4774    0.0000 C.3     1  UNL1       -0.0116
     39 C           6.3984    4.9480    0.0000 C.ar    1  UNL1       -0.0162
     40 C           7.9533   -3.6284    0.0000 C.2     1  UNL1       -0.0204
     41 C           4.4200   -1.0766    0.0000 C.ar    1  UNL1       -0.0545
     42 C           3.7253   -2.5703    0.0000 C.ar    1  UNL1        0.1619
     43 C           3.6415   -1.6229    0.0000 C.ar    1  UNL1       -0.0160
     44 C           8.1696   -5.5925    0.0000 C.3     1  UNL1        0.0785
     45 C           2.0000   -2.7229    0.0000 C.3     1  UNL1        0.0790
     46 H           8.3371    1.2963    0.0000 H       1  UNL1        0.0497
     47 H           4.7582    1.3828    0.0000 H       1  UNL1        0.0828
     48 H           7.0847    3.3970    0.0000 H       1  UNL1        0.0288
     49 H           6.3882    3.0591    0.0000 H       1  UNL1        0.0288
     50 H           5.7930   -0.6734    0.0000 H       1  UNL1        0.0514
     51 H           7.7590    0.3582    0.0000 H       1  UNL1        0.0605
     52 H           8.6563    2.9382    0.0000 H       1  UNL1        0.0329
     53 H           8.2577    3.6285    0.0000 H       1  UNL1        0.0329
     54 H           5.3373   -1.6548    0.0000 H       1  UNL1        0.0297
     55 H           5.3500   -2.4287    0.0000 H       1  UNL1        0.0297
     56 H           8.8926    2.9761    0.0000 H       1  UNL1        0.0427
     57 H           8.2076    3.4052    0.0000 H       1  UNL1        0.0427
     58 H           7.6943   -1.6904    0.0000 H       1  UNL1        0.0513
     59 H           6.1825   -4.6136    0.0000 H       1  UNL1        0.0828
     60 H           6.4160   -0.4232    0.0000 H       1  UNL1        0.0332
     61 H           5.6221   -0.4935    0.0000 H       1  UNL1        0.0332
     62 H           7.8804    0.3659    0.0000 H       1  UNL1        0.2107
     63 H           9.0966    0.4648    0.0000 H       1  UNL1        0.0391
     64 H           9.9728    0.4332    0.0000 H       1  UNL1        0.0391
     65 H          10.0044    1.3095    0.0000 H       1  UNL1        0.0391
     66 H           7.7590    4.7825    0.0000 H       1  UNL1        0.0622
     67 H           8.3770   -2.3249    0.0000 H       1  UNL1        0.0619
     68 H           8.8444   -1.0671    0.0000 H       1  UNL1        0.0391
     69 H           9.2426   -0.2859    0.0000 H       1  UNL1        0.0391
     70 H           8.4614    0.1123    0.0000 H       1  UNL1        0.0391
     71 H           6.3984    5.5680    0.0000 H       1  UNL1        0.0655
     72 H           8.5155   -3.8898    0.0000 H       1  UNL1        0.0652
     73 H           4.3654   -0.4591    0.0000 H       1  UNL1        0.0622
     74 H           3.0793   -1.3614    0.0000 H       1  UNL1        0.0655
     75 H           4.7087    5.5925    0.0000 H       1  UNL1        0.2923
     76 H           7.9081   -6.1547    0.0000 H       1  UNL1        0.0660
     77 H           8.7318   -5.8540    0.0000 H       1  UNL1        0.0660
     78 H           8.4311   -5.0303    0.0000 H       1  UNL1        0.0660
     79 H           2.2615   -2.1608    0.0000 H       1  UNL1        0.0660
     80 H           1.4378   -2.4615    0.0000 H       1  UNL1        0.0660
     81 H           1.7385   -3.2851    0.0000 H       1  UNL1        0.0660
@<TRIPOS>BOND
     1     1    13    1
     2     1    27    1
     3    11     2    1
     4     2    62    1
     5     3    28    1
     6     3    32    1
     7     4    25    2
     8     5    36    1
     9     5    44    1
    10     6    37    1
    11     6    75    1
    12     7    42    1
    13     7    45    1
    14     8    12    1
    15     8    22    1
    16     8    33    1
    17     9    17    1
    18     9    24    1
    19     9    38    1
    20    10    11    1
    21    10    13    1
    22    10    14    1
    23    10    15    1
    24    11    12    1
    25    11    18    1
    26    12    20    1
    27    12    46    1
    28    13    25    1
    29    13    47    1
    30    14    22    1
    31    14    48    1
    32    14    49    1
    33    15    23   ar
    34    15    27   ar
    35    16    21    1
    36    16    26    1
    37    16    28    1
    38    16    29    1
    39    17    19    1
    40    17    21    1
    41    17    50    1
    42    18    19    2
    43    18    51    1
    44    19    25    1
    45    20    23    1
    46    20    52    1
    47    20    53    1
    48    21    54    1
    49    21    55    1
    50    22    56    1
    51    22    57    1
    52    23    34   ar
    53    24    26    1
    54    24    30    1
    55    24    58    1
    56    26    35    2
    57    27    37   ar
    58    28    36    1
    59    28    59    1
    60    29    31   ar
    61    29    32   ar
    62    30    31    1
    63    30    60    1
    64    30    61    1
    65    31    41   ar
    66    32    42   ar
    67    33    63    1
    68    33    64    1
    69    33    65    1
    70    34    39   ar
    71    34    66    1
    72    35    40    1
    73    35    67    1
    74    36    40    2
    75    37    39   ar
    76    38    68    1
    77    38    69    1
    78    38    70    1
    79    39    71    1
    80    40    72    1
    81    41    43   ar
    82    41    73    1
    83    42    43   ar
    84    43    74    1
    85    44    76    1
    86    44    77    1
    87    44    78    1
    88    45    79    1
    89    45    80    1
    90    45    81    1
