@<TRIPOS>MOLECULE
IMPHY010547
 29 30 0 0 0
SMALL
GASTEIGER

@<TRIPOS>ATOM
      1 O           4.6783   -0.9877    0.0000 O.3     1  UNL1       -0.4508
      2 O           6.2619   -0.1830    0.0000 O.2     1  UNL1       -0.2456
      3 C           2.8660    0.8170    0.0000 C.3     1  UNL1       -0.0097
      4 C           3.7320   -0.6830    0.0000 C.3     1  UNL1        0.1330
      5 C           3.7320    0.3170    0.0000 C.2     1  UNL1       -0.0145
      6 C           2.0000    0.3170    0.0000 C.3     1  UNL1       -0.0439
      7 C           2.8660   -1.1830    0.0000 C.3     1  UNL1       -0.0091
      8 C           2.0000   -0.6830    0.0000 C.3     1  UNL1       -0.0484
      9 C           2.3660    1.6830    0.0000 C.3     1  UNL1       -0.0560
     10 C           3.3660    1.6830    0.0000 C.3     1  UNL1       -0.0560
     11 C           3.7320   -1.6830    0.0000 C.3     1  UNL1       -0.0208
     12 C           4.6783    0.6217    0.0000 C.2     1  UNL1        0.0260
     13 C           5.2619   -0.1830    0.0000 C.2     1  UNL1        0.3329
     14 H           1.7880    0.8996    0.0000 H       1  UNL1        0.0274
     15 H           1.3894    0.2093    0.0000 H       1  UNL1        0.0274
     16 H           2.4675   -1.6580    0.0000 H       1  UNL1        0.0307
     17 H           3.2646   -1.6580    0.0000 H       1  UNL1        0.0307
     18 H           1.3894   -0.5754    0.0000 H       1  UNL1        0.0267
     19 H           1.7880   -1.2656    0.0000 H       1  UNL1        0.0267
     20 H           3.9030    1.3730    0.0000 H       1  UNL1        0.0238
     21 H           3.6760    2.2200    0.0000 H       1  UNL1        0.0238
     22 H           2.9030    1.9930    0.0000 H       1  UNL1        0.0238
     23 H           2.0560    2.2200    0.0000 H       1  UNL1        0.0238
     24 H           1.8291    1.3730    0.0000 H       1  UNL1        0.0238
     25 H           2.8291    1.9930    0.0000 H       1  UNL1        0.0238
     26 H           3.1120   -1.6830    0.0000 H       1  UNL1        0.0271
     27 H           3.7320   -2.3030    0.0000 H       1  UNL1        0.0271
     28 H           4.3520   -1.6830    0.0000 H       1  UNL1        0.0271
     29 H           4.8709    1.2110    0.0000 H       1  UNL1        0.0690
@<TRIPOS>BOND
     1     1     4    1
     2     1    13    1
     3     2    13    2
     4     3     5    1
     5     3     6    1
     6     3     9    1
     7     3    10    1
     8     4     5    1
     9     4     7    1
    10     4    11    1
    11     5    12    2
    12     6     8    1
    13     6    14    1
    14     6    15    1
    15     7     8    1
    16     7    16    1
    17     7    17    1
    18     8    18    1
    19     8    19    1
    20     9    22    1
    21     9    23    1
    22     9    24    1
    23    10    20    1
    24    10    21    1
    25    10    25    1
    26    11    26    1
    27    11    27    1
    28    11    28    1
    29    12    13    1
    30    12    29    1
