@<TRIPOS>MOLECULE
IMPHY007686
 70 73 0 0 0
SMALL
GASTEIGER

@<TRIPOS>ATOM
      1 O           6.0010   -1.3450    0.0000 O.3     1  UNL1       -0.3484
      2 O           4.2690   -1.3450    0.0000 O.3     1  UNL1       -0.3431
      3 O           8.5991   -1.8450    0.0000 O.3     1  UNL1       -0.3947
      4 O           6.0010   -3.3450    0.0000 O.3     1  UNL1       -0.3841
      5 O           4.2690   -4.3450    0.0000 O.3     1  UNL1       -0.3864
      6 O           2.5369   -3.3450    0.0000 O.3     1  UNL1       -0.3866
      7 O          10.3851    3.2001    0.0000 O.3     1  UNL1       -0.4914
      8 O           8.6112    4.2242    0.0000 O.3     1  UNL1       -0.5033
      9 O           5.1350    4.1550    0.0000 O.3     1  UNL1       -0.4914
     10 O           3.4030    3.1550    0.0000 O.3     1  UNL1       -0.5033
     11 C           6.8671    0.1550    0.0000 C.3     1  UNL1       -0.0014
     12 C           7.7331   -0.3450    0.0000 C.3     1  UNL1       -0.0081
     13 C           6.8671    1.1550    0.0000 C.3     1  UNL1        0.0150
     14 C           8.5991    0.1550    0.0000 C.3     1  UNL1       -0.0220
     15 C           7.7331    1.6550    0.0000 C.ar    1  UNL1       -0.0328
     16 C           6.0010   -0.3450    0.0000 C.3     1  UNL1        0.0548
     17 C           8.5991    1.1550    0.0000 C.ar    1  UNL1       -0.0396
     18 C           7.7331   -1.3450    0.0000 C.3     1  UNL1        0.0477
     19 C           6.0010    1.6550    0.0000 C.ar    1  UNL1       -0.0359
     20 C           5.1350   -1.8450    0.0000 C.3     1  UNL1        0.1878
     21 C           5.1350   -2.8450    0.0000 C.3     1  UNL1        0.1341
     22 C           7.7170    2.6965    0.0000 C.ar    1  UNL1       -0.0125
     23 C           4.2690   -3.3450    0.0000 C.3     1  UNL1        0.1140
     24 C           9.5091    1.6618    0.0000 C.ar    1  UNL1       -0.0128
     25 C           3.4030   -2.8450    0.0000 C.3     1  UNL1        0.1095
     26 C           3.4030   -1.8450    0.0000 C.3     1  UNL1        0.0873
     27 C           6.0010    2.6550    0.0000 C.ar    1  UNL1       -0.0125
     28 C           5.1350    1.1550    0.0000 C.ar    1  UNL1       -0.0543
     29 C           8.6151    3.2243    0.0000 C.ar    1  UNL1        0.1587
     30 C           9.5172    2.7034    0.0000 C.ar    1  UNL1        0.1615
     31 C           2.5369   -1.3450    0.0000 C.3     1  UNL1       -0.0361
     32 C           5.1350    3.1550    0.0000 C.ar    1  UNL1        0.1615
     33 C           4.2690    1.6550    0.0000 C.ar    1  UNL1       -0.0162
     34 C           4.2690    2.6550    0.0000 C.ar    1  UNL1        0.1585
     35 C          11.2492    2.6968    0.0000 C.3     1  UNL1        0.0790
     36 C           4.2690    4.6550    0.0000 C.3     1  UNL1        0.0790
     37 H           6.8671   -0.4650    0.0000 H       1  UNL1        0.0335
     38 H           8.2700   -0.6550    0.0000 H       1  UNL1        0.0330
     39 H           6.3301    0.8450    0.0000 H       1  UNL1        0.0401
     40 H           8.8112   -0.4276    0.0000 H       1  UNL1        0.0317
     41 H           9.2097    0.2627    0.0000 H       1  UNL1        0.0317
     42 H           5.7890    0.2376    0.0000 H       1  UNL1        0.0564
     43 H           5.3905   -0.4527    0.0000 H       1  UNL1        0.0564
     44 H           7.1225   -1.2373    0.0000 H       1  UNL1        0.0560
     45 H           7.5210   -1.9276    0.0000 H       1  UNL1        0.0560
     46 H           5.1350   -1.2250    0.0000 H       1  UNL1        0.0937
     47 H           5.1350   -3.4650    0.0000 H       1  UNL1        0.0671
     48 H           7.1765    3.0003    0.0000 H       1  UNL1        0.0658
     49 H           3.7320   -3.6550    0.0000 H       1  UNL1        0.0648
     50 H          10.0424    1.3457    0.0000 H       1  UNL1        0.0658
     51 H           2.8660   -2.5350    0.0000 H       1  UNL1        0.0646
     52 H           3.4030   -1.2250    0.0000 H       1  UNL1        0.0621
     53 H           6.5380    2.9650    0.0000 H       1  UNL1        0.0658
     54 H           5.1350    0.5350    0.0000 H       1  UNL1        0.0622
     55 H           8.5991   -2.4650    0.0000 H       1  UNL1        0.2094
     56 H           2.8469   -0.8081    0.0000 H       1  UNL1        0.0255
     57 H           2.0000   -1.0350    0.0000 H       1  UNL1        0.0255
     58 H           2.2269   -1.8819    0.0000 H       1  UNL1        0.0255
     59 H           3.7320    1.3450    0.0000 H       1  UNL1        0.0655
     60 H           6.5380   -3.0350    0.0000 H       1  UNL1        0.2101
     61 H           3.7320   -4.6550    0.0000 H       1  UNL1        0.2100
     62 H           2.0000   -3.0350    0.0000 H       1  UNL1        0.2100
     63 H           9.1470    4.5363    0.0000 H       1  UNL1        0.2923
     64 H          10.9371    2.1610    0.0000 H       1  UNL1        0.0660
     65 H          11.7849    2.3847    0.0000 H       1  UNL1        0.0660
     66 H          11.5612    3.2325    0.0000 H       1  UNL1        0.0660
     67 H           2.8660    2.8450    0.0000 H       1  UNL1        0.2923
     68 H           4.5790    5.1919    0.0000 H       1  UNL1        0.0660
     69 H           3.7320    4.9650    0.0000 H       1  UNL1        0.0660
     70 H           3.9590    4.1181    0.0000 H       1  UNL1        0.0660
@<TRIPOS>BOND
     1     1    16    1
     2    20     1    1
     3     2    20    1
     4     2    26    1
     5     3    18    1
     6     3    55    1
     7    21     4    1
     8     4    60    1
     9    23     5    1
    10     5    61    1
    11    25     6    1
    12     6    62    1
    13     7    30    1
    14     7    35    1
    15     8    29    1
    16     8    63    1
    17     9    32    1
    18     9    36    1
    19    10    34    1
    20    10    67    1
    21    11    12    1
    22    11    13    1
    23    11    16    1
    24    11    37    1
    25    12    14    1
    26    12    18    1
    27    12    38    1
    28    13    15    1
    29    13    19    1
    30    13    39    1
    31    14    17    1
    32    14    40    1
    33    14    41    1
    34    15    17   ar
    35    15    22   ar
    36    16    42    1
    37    16    43    1
    38    17    24   ar
    39    18    44    1
    40    18    45    1
    41    19    27   ar
    42    19    28   ar
    43    20    21    1
    44    20    46    1
    45    21    23    1
    46    21    47    1
    47    22    29   ar
    48    22    48    1
    49    23    25    1
    50    23    49    1
    51    24    30   ar
    52    24    50    1
    53    25    26    1
    54    25    51    1
    55    26    31    1
    56    26    52    1
    57    27    32   ar
    58    27    53    1
    59    28    33   ar
    60    28    54    1
    61    29    30   ar
    62    31    56    1
    63    31    57    1
    64    31    58    1
    65    32    34   ar
    66    33    34   ar
    67    33    59    1
    68    35    64    1
    69    35    65    1
    70    35    66    1
    71    36    68    1
    72    36    69    1
    73    36    70    1
