@<TRIPOS>MOLECULE
IMPHY011887
 79 84 0 0 0
SMALL
GASTEIGER

@<TRIPOS>ATOM
      1 O           3.2099    0.8626    0.0000 O.3     1  UNL1       -0.4604
      2 O          13.5951   -2.1994    0.0000 O.3     1  UNL1       -0.3912
      3 O           2.0851    2.3285    0.0000 O.2     1  UNL1       -0.2502
      4 C           8.6542   -0.8989    0.0000 C.3     1  UNL1       -0.0194
      5 C           9.5537   -0.2921    0.0000 C.3     1  UNL1       -0.0257
      6 C           7.6827   -0.4157    0.0000 C.3     1  UNL1       -0.0051
      7 C          10.5770   -0.7719    0.0000 C.3     1  UNL1       -0.0250
      8 C          10.6646   -1.8986    0.0000 C.3     1  UNL1       -0.0278
      9 C           6.6589    1.0649    0.0000 C.3     1  UNL1       -0.0096
     10 C           5.8299    0.5057    0.0000 C.3     1  UNL1        0.0116
     11 C           7.6021    0.6228    0.0000 C.2     1  UNL1       -0.0633
     12 C           8.7157   -2.0274    0.0000 C.3     1  UNL1       -0.0463
     13 C           6.8192   -0.9982    0.0000 C.3     1  UNL1       -0.0428
     14 C           9.7276   -2.5306    0.0000 C.3     1  UNL1       -0.0486
     15 C          11.7186   -2.4228    0.0000 C.3     1  UNL1       -0.0056
     16 C           9.4697    0.7896    0.0000 C.3     1  UNL1       -0.0306
     17 C           5.8865   -0.5344    0.0000 C.3     1  UNL1       -0.0429
     18 C          11.5375   -0.0912    0.0000 C.3     1  UNL1       -0.0447
     19 C           4.6089    1.3714    0.0000 C.3     1  UNL1        0.1100
     20 C           6.3833    2.0262    0.0000 C.3     1  UNL1       -0.0302
     21 C           8.0664   -1.7079    0.0000 C.3     1  UNL1       -0.0585
     22 C           8.4873    1.2501    0.0000 C.2     1  UNL1       -0.0836
     23 C           4.3501    2.3373    0.0000 C.3     1  UNL1        0.0689
     24 C           7.4144   -1.3791    0.0000 C.3     1  UNL1       -0.0553
     25 C          12.6946   -1.7645    0.0000 C.3     1  UNL1        0.0606
     26 C          10.4996    0.2251    0.0000 C.3     1  UNL1       -0.0590
     27 C          12.6034   -0.5909    0.0000 C.3     1  UNL1       -0.0258
     28 C           5.0867    3.3199    0.0000 C.3     1  UNL1        0.0004
     29 C           5.0009   -0.0535    0.0000 C.3     1  UNL1       -0.0556
     30 C          12.2746   -3.2540    0.0000 C.3     1  UNL1       -0.0572
     31 C          11.2768   -3.3199    0.0000 C.3     1  UNL1       -0.0572
     32 C           2.9511    1.8285    0.0000 C.2     1  UNL1        0.3135
     33 C           4.0912    3.3032    0.0000 C.3     1  UNL1       -0.0493
     34 H           8.7883    0.0775    0.0000 H       1  UNL1        0.0315
     35 H          10.7206   -2.7468    0.0000 H       1  UNL1        0.0312
     36 H           7.3636    1.5402    0.0000 H       1  UNL1        0.0353
     37 H           8.5387   -2.6216    0.0000 H       1  UNL1        0.0271
     38 H           8.1000   -1.9546    0.0000 H       1  UNL1        0.0271
     39 H           7.2487   -1.4453    0.0000 H       1  UNL1        0.0274
     40 H           6.4522   -1.4979    0.0000 H       1  UNL1        0.0274
     41 H          10.1572   -2.9777    0.0000 H       1  UNL1        0.0268
     42 H           9.3606   -3.0303    0.0000 H       1  UNL1        0.0268
     43 H           9.6329    1.3877    0.0000 H       1  UNL1        0.0310
     44 H          10.0869    0.7311    0.0000 H       1  UNL1        0.0310
     45 H           5.7095   -1.1286    0.0000 H       1  UNL1        0.0272
     46 H           5.2708   -0.4617    0.0000 H       1  UNL1        0.0272
     47 H          11.0977    0.3459    0.0000 H       1  UNL1        0.0271
     48 H          11.8929    0.4169    0.0000 H       1  UNL1        0.0271
     49 H           4.8289    0.5503    0.0000 H       1  UNL1        0.0740
     50 H           6.3883    2.6462    0.0000 H       1  UNL1        0.0282
     51 H           6.9976    2.1100    0.0000 H       1  UNL1        0.0282
     52 H           8.5680   -2.0723    0.0000 H       1  UNL1        0.0235
     53 H           7.7020   -2.2095    0.0000 H       1  UNL1        0.0235
     54 H           7.5648   -1.3434    0.0000 H       1  UNL1        0.0235
     55 H           8.4321    1.8677    0.0000 H       1  UNL1        0.0572
     56 H           8.0117   -1.5454    0.0000 H       1  UNL1        0.0238
     57 H           7.2481   -1.9763    0.0000 H       1  UNL1        0.0238
     58 H           6.8172   -1.2127    0.0000 H       1  UNL1        0.0238
     59 H          12.7390   -2.3829    0.0000 H       1  UNL1        0.0599
     60 H           9.8814    0.1771    0.0000 H       1  UNL1        0.0235
     61 H          10.4516    0.8433    0.0000 H       1  UNL1        0.0235
     62 H          11.1177    0.2732    0.0000 H       1  UNL1        0.0235
     63 H          12.7666    0.0073    0.0000 H       1  UNL1        0.0290
     64 H          13.2206   -0.6493    0.0000 H       1  UNL1        0.0290
     65 H           4.7689    3.8523    0.0000 H       1  UNL1        0.0311
     66 H           5.6998    3.4119    0.0000 H       1  UNL1        0.0311
     67 H           5.3476   -0.5675    0.0000 H       1  UNL1        0.0236
     68 H           4.4868   -0.4002    0.0000 H       1  UNL1        0.0236
     69 H           4.6542    0.4605    0.0000 H       1  UNL1        0.0236
     70 H          11.8330   -3.5938    0.0000 H       1  UNL1        0.0236
     71 H          11.0029   -3.8761    0.0000 H       1  UNL1        0.0236
     72 H          12.7900   -2.9093    0.0000 H       1  UNL1        0.0236
     73 H          12.6193   -3.7693    0.0000 H       1  UNL1        0.0236
     74 H          10.7206   -3.0460    0.0000 H       1  UNL1        0.0236
     75 H          11.7593   -3.5987    0.0000 H       1  UNL1        0.0236
     76 H           3.4924    3.1428    0.0000 H       1  UNL1        0.0240
     77 H           3.9308    3.9021    0.0000 H       1  UNL1        0.0240
     78 H           4.6901    3.4637    0.0000 H       1  UNL1        0.0240
     79 H          14.1077   -1.8508    0.0000 H       1  UNL1        0.2098
@<TRIPOS>BOND
     1     1    19    1
     2     1    32    1
     3    25     2    1
     4     2    79    1
     5     3    32    2
     6     4     5    1
     7     4     6    1
     8     4    12    1
     9     4    21    1
    10     5     7    1
    11     5    16    1
    12     5    34    1
    13     6    11    1
    14     6    13    1
    15     6    24    1
    16     7     8    1
    17     7    18    1
    18     7    26    1
    19     8    14    1
    20     8    15    1
    21     8    35    1
    22     9    10    1
    23     9    11    1
    24     9    20    1
    25     9    36    1
    26    10    17    1
    27    10    19    1
    28    10    29    1
    29    11    22    2
    30    12    14    1
    31    12    37    1
    32    12    38    1
    33    13    17    1
    34    13    39    1
    35    13    40    1
    36    14    41    1
    37    14    42    1
    38    15    25    1
    39    15    30    1
    40    15    31    1
    41    16    22    1
    42    16    43    1
    43    16    44    1
    44    17    45    1
    45    17    46    1
    46    18    27    1
    47    18    47    1
    48    18    48    1
    49    19    28    1
    50    19    49    1
    51    20    23    1
    52    20    50    1
    53    20    51    1
    54    21    52    1
    55    21    53    1
    56    21    54    1
    57    22    55    1
    58    23    28    1
    59    23    32    1
    60    23    33    1
    61    24    56    1
    62    24    57    1
    63    24    58    1
    64    25    27    1
    65    25    59    1
    66    26    60    1
    67    26    61    1
    68    26    62    1
    69    27    63    1
    70    27    64    1
    71    28    65    1
    72    28    66    1
    73    29    67    1
    74    29    68    1
    75    29    69    1
    76    30    72    1
    77    30    73    1
    78    30    75    1
    79    31    70    1
    80    31    71    1
    81    31    74    1
    82    33    76    1
    83    33    77    1
    84    33    78    1
