@<TRIPOS>MOLECULE
IMPHY006099
 39 41 0 0 0
SMALL
GASTEIGER

@<TRIPOS>ATOM
      1 S           7.8003    2.3450    0.0000 S.O2    1  UNL1        0.2515
      2 O           6.0682   -0.6550    0.0000 O.2     1  UNL1       -0.4506
      3 O           7.8003    1.3450    0.0000 O.3     1  UNL1       -0.3172
      4 O           4.3198    2.3796    0.0000 O.3     1  UNL1       -0.5058
      5 O           6.0682    2.3450    0.0000 O.2     1  UNL1       -0.2829
      6 O           8.6663   -3.1550    0.0000 O.3     1  UNL1       -0.4914
      7 O           2.5381   -0.6792    0.0000 O.3     1  UNL1       -0.5065
      8 O          10.3984   -2.1550    0.0000 O.3     1  UNL1       -0.5033
      9 O           7.8003    3.3450    0.0000 O.3     1  UNL1       -0.2222
     10 O           8.8003    2.3450    0.0000 O.2     1  UNL1       -0.1077
     11 O           6.8003    2.3450    0.0000 O.2     1  UNL1       -0.1077
     12 C           5.2022    0.8450    0.0000 C.ar    1  UNL1        0.1093
     13 C           6.9343   -0.1550    0.0000 C.ar    1  UNL1        0.1839
     14 C           5.2022   -0.1550    0.0000 C.ar    1  UNL1        0.1465
     15 C           6.9343    0.8450    0.0000 C.ar    1  UNL1        0.2484
     16 C           7.8003   -0.6550    0.0000 C.ar    1  UNL1        0.0248
     17 C           6.0682    1.3450    0.0000 C.ar    1  UNL1        0.2410
     18 C           4.3083    1.3797    0.0000 C.ar    1  UNL1        0.1348
     19 C           4.3083   -0.6897    0.0000 C.ar    1  UNL1        0.0231
     20 C           7.8003   -1.6550    0.0000 C.ar    1  UNL1       -0.0055
     21 C           8.6663   -0.1550    0.0000 C.ar    1  UNL1       -0.0473
     22 C           3.4022    0.8658    0.0000 C.ar    1  UNL1        0.0223
     23 C           3.4022   -0.1758    0.0000 C.ar    1  UNL1        0.1239
     24 C           8.6663   -2.1550    0.0000 C.ar    1  UNL1        0.1619
     25 C           9.5323   -0.6550    0.0000 C.ar    1  UNL1       -0.0159
     26 C           9.5323   -1.6550    0.0000 C.ar    1  UNL1        0.1585
     27 C           9.5323   -3.6550    0.0000 C.3     1  UNL1        0.0790
     28 H           4.3154   -1.3096    0.0000 H       1  UNL1        0.0691
     29 H           7.2634   -1.9650    0.0000 H       1  UNL1        0.0662
     30 H           8.6663    0.4650    0.0000 H       1  UNL1        0.0626
     31 H           2.8665    1.1779    0.0000 H       1  UNL1        0.0691
     32 H          10.0693   -0.3450    0.0000 H       1  UNL1        0.0655
     33 H           3.7865    2.6958    0.0000 H       1  UNL1        0.2922
     34 H           2.0000   -0.3712    0.0000 H       1  UNL1        0.2921
     35 H          10.9353   -1.8450    0.0000 H       1  UNL1        0.2923
     36 H           9.2224   -4.1919    0.0000 H       1  UNL1        0.0660
     37 H          10.0693   -3.9650    0.0000 H       1  UNL1        0.0660
     38 H           9.8424   -3.1181    0.0000 H       1  UNL1        0.0660
     39 H           8.3372    3.6550    0.0000 H       1  UNL1        0.2479
@<TRIPOS>BOND
     1     1     3    1
     2     1     9    1
     3     1    10    2
     4     1    11    2
     5     2    13   ar
     6     2    14   ar
     7     3    15    1
     8     4    18    1
     9     4    33    1
    10     5    17    2
    11     6    24    1
    12     6    27    1
    13     7    23    1
    14     7    34    1
    15     8    26    1
    16     8    35    1
    17     9    39    1
    18    12    14   ar
    19    12    17   ar
    20    12    18   ar
    21    13    15   ar
    22    13    16    1
    23    14    19   ar
    24    15    17   ar
    25    16    20   ar
    26    16    21   ar
    27    18    22   ar
    28    19    23   ar
    29    19    28    1
    30    20    24   ar
    31    20    29    1
    32    21    25   ar
    33    21    30    1
    34    22    23   ar
    35    22    31    1
    36    24    26   ar
    37    25    26   ar
    38    25    32    1
    39    27    36    1
    40    27    37    1
    41    27    38    1
