@<TRIPOS>MOLECULE
IMPHY011751
 47 50 0 0 0
SMALL
GASTEIGER

@<TRIPOS>ATOM
      1 O           2.8819    0.3119    0.0000 O.2     1  UNL1       -0.2751
      2 O           2.0024    3.8086    0.0000 O.3     1  UNL1       -0.3932
      3 N           6.4140    0.3117    0.0000 N.3     1  UNL1       -0.2971
      4 N           7.4021   -3.8785    0.0000 N.ar    1  UNL1       -0.3604
      5 N           3.7421    1.8153    0.0000 N.am    1  UNL1       -0.3100
      6 C           6.3980   -0.7298    0.0000 C.3     1  UNL1        0.0397
      7 C           5.5320   -1.2298    0.0000 C.2     1  UNL1       -0.0254
      8 C           7.2640   -1.2298    0.0000 C.3     1  UNL1       -0.0059
      9 C           4.6139    0.3186    0.0000 C.3     1  UNL1        0.0669
     10 C           5.5160    0.8394    0.0000 C.3     1  UNL1        0.0138
     11 C           7.2640   -2.2298    0.0000 C.ar    1  UNL1       -0.0200
     12 C           5.5320   -2.2298    0.0000 C.ar    1  UNL1       -0.0112
     13 C           6.3980   -2.7298    0.0000 C.ar    1  UNL1        0.0103
     14 C           4.6220   -0.7230    0.0000 C.2     1  UNL1       -0.0658
     15 C           6.4140   -3.7713    0.0000 C.ar    1  UNL1        0.0473
     16 C           7.2858    0.8016    0.0000 C.3     1  UNL1       -0.0121
     17 C           7.8819   -3.0082    0.0000 C.ar    1  UNL1        0.0060
     18 C           3.7460    0.8153    0.0000 C.2     0  ACE0        0.2214
     19 C           4.6220   -2.7367    0.0000 C.ar    1  UNL1       -0.0536
     20 C           5.5160   -4.2991    0.0000 C.ar    1  UNL1       -0.0378
     21 C           4.6139   -3.7783    0.0000 C.ar    1  UNL1       -0.0592
     22 CA          2.8742    2.3119    0.0000 C.3     1  UNL1        0.0434
     23 C           2.8703    3.3119    0.0000 C.3     1  UNL1        0.0623
     24 CB          2.0101    1.8086    0.0000 C.3     1  UNL1       -0.0445
     25 H           7.1374   -0.3105    0.0000 H       1  UNL1        0.0515
     26 H           7.8746   -1.3375    0.0000 H       1  UNL1        0.0332
     27 H           7.4761   -0.6472    0.0000 H       1  UNL1        0.0332
     28 H           4.6127    0.9386    0.0000 H       1  UNL1        0.0450
     29 H           5.9170    1.3123    0.0000 H       1  UNL1        0.0437
     30 H           5.1187    1.3154    0.0000 H       1  UNL1        0.0437
     31 H           4.0886   -1.0392    0.0000 H       1  UNL1        0.0583
     32 H           7.5896    0.2611    0.0000 H       1  UNL1        0.0391
     33 H           7.8263    1.1054    0.0000 H       1  UNL1        0.0391
     34 H           6.9820    1.3421    0.0000 H       1  UNL1        0.0391
     35 H           8.4998   -2.9564    0.0000 H       1  UNL1        0.0810
     36 H           4.0886   -2.4205    0.0000 H       1  UNL1        0.0624
     37 H           7.6881   -4.4286    0.0000 H       1  UNL1        0.1653
     38 H           5.5184   -4.9191    0.0000 H       1  UNL1        0.0638
     39 H           4.0758   -4.0862    0.0000 H       1  UNL1        0.0618
     40 H           4.2779    2.1273    0.0000 H       1  UNL1        0.1491
     41 HA          3.4099    2.6240    0.0000 H       1  UNL1        0.0518
     42 H1          3.4813    3.2066    0.0000 H       1  UNL1        0.0575
     43 H2          3.0801    3.8953    0.0000 H       1  UNL1        0.0575
     44 HB1         1.6980    2.3443    0.0000 H       1  UNL1        0.0248
     45 HB2         1.4744    1.4965    0.0000 H       1  UNL1        0.0248
     46 HB3         2.3222    1.2729    0.0000 H       1  UNL1        0.0248
     47 H           2.0000    4.4286    0.0000 H       1  UNL1        0.2095
@<TRIPOS>BOND
     1     1    18    2
     2     2    23    1
     3     2    47    1
     4     3     6    1
     5     3    10    1
     6     3    16    1
     7     4    15   ar
     8     4    17   ar
     9     4    37    1
    10     5    18   am
    11    22     5    1
    12     5    40    1
    13     6     7    1
    14     6     8    1
    15     6    25    1
    16     7    12    1
    17     7    14    2
    18     8    11    1
    19     8    26    1
    20     8    27    1
    21     9    10    1
    22     9    14    1
    23     9    18    1
    24     9    28    1
    25    10    29    1
    26    10    30    1
    27    11    13   ar
    28    11    17   ar
    29    12    13   ar
    30    12    19   ar
    31    13    15   ar
    32    14    31    1
    33    15    20   ar
    34    16    32    1
    35    16    33    1
    36    16    34    1
    37    17    35    1
    38    19    21   ar
    39    19    36    1
    40    20    21   ar
    41    20    38    1
    42    21    39    1
    43    22    23    1
    44    22    24    1
    45    22    41    1
    46    23    42    1
    47    23    43    1
    48    24    44    1
    49    24    45    1
    50    24    46    1
