@<TRIPOS>MOLECULE
IMPHY014947
 41 44 0 0 0
SMALL
GASTEIGER

@<TRIPOS>ATOM
      1 O           8.2366   -0.6358    0.0000 O.3     1  UNL1       -0.3423
      2 O           7.4720   -1.8198    0.0000 O.3     1  UNL1       -0.3631
      3 O           4.6660   -2.3416    0.0000 O.2     1  UNL1       -0.2669
      4 N           7.3250    1.7538    0.0000 N.3     1  UNL1       -0.3107
      5 N           5.5321   -0.8416    0.0000 N.ar    1  UNL1       -0.2936
      6 N           4.6660    0.6584    0.0000 N.ar    1  UNL1       -0.2370
      7 C           7.4296    0.7593    0.0000 C.3     1  UNL1        0.0389
      8 C           8.3431    0.3526    0.0000 C.3     1  UNL1        0.0775
      9 C           6.7663    0.0188    0.0000 C.3     1  UNL1        0.0208
     10 C           7.2641   -0.8416    0.0000 C.3     1  UNL1        0.1874
     11 C           9.1521    0.9404    0.0000 C.3     1  UNL1       -0.0239
     12 C           9.0476    1.9349    0.0000 C.3     1  UNL1       -0.0380
     13 C           8.1341    2.3416    0.0000 C.3     1  UNL1       -0.0037
     14 C           6.3981   -1.3416    0.0000 C.3     1  UNL1        0.0814
     15 C           4.6660   -1.3416    0.0000 C.ar    1  UNL1        0.2618
     16 C           5.5321    0.1584    0.0000 C.ar    1  UNL1        0.0994
     17 C           3.8000   -0.8416    0.0000 C.ar    1  UNL1        0.0649
     18 C           3.8000    0.1584    0.0000 C.ar    1  UNL1        0.0778
     19 C           2.9061   -1.3763    0.0000 C.ar    1  UNL1       -0.0474
     20 C           2.9061    0.6930    0.0000 C.ar    1  UNL1       -0.0355
     21 C           2.0000   -0.8624    0.0000 C.ar    1  UNL1       -0.0609
     22 C           2.0000    0.1792    0.0000 C.ar    1  UNL1       -0.0597
     23 H           6.6208    1.0209    0.0000 H       1  UNL1        0.0487
     24 H           9.0787   -0.0734    0.0000 H       1  UNL1        0.0613
     25 H           6.3505    0.4788    0.0000 H       1  UNL1        0.0334
     26 H           6.2653   -0.3463    0.0000 H       1  UNL1        0.0334
     27 H           9.4239    0.3831    0.0000 H       1  UNL1        0.0291
     28 H           9.7481    1.1113    0.0000 H       1  UNL1        0.0291
     29 H           6.7586    2.0060    0.0000 H       1  UNL1        0.1223
     30 H           9.6661    1.8916    0.0000 H       1  UNL1        0.0278
     31 H           9.1976    2.5365    0.0000 H       1  UNL1        0.0278
     32 H           8.4808    2.8556    0.0000 H       1  UNL1        0.0424
     33 H           7.6881    2.7723    0.0000 H       1  UNL1        0.0424
     34 H           5.9996   -1.8166    0.0000 H       1  UNL1        0.0546
     35 H           6.7966   -1.8166    0.0000 H       1  UNL1        0.0546
     36 H           8.0617   -2.0114    0.0000 H       1  UNL1        0.2128
     37 H           6.0690    0.4684    0.0000 H       1  UNL1        0.1030
     38 H           2.9132   -1.9962    0.0000 H       1  UNL1        0.0626
     39 H           2.9132    1.3130    0.0000 H       1  UNL1        0.0639
     40 H           1.4643   -1.1745    0.0000 H       1  UNL1        0.0618
     41 H           1.4643    0.4913    0.0000 H       1  UNL1        0.0618
@<TRIPOS>BOND
     1     1     8    1
     2     1    10    1
     3     2    10    1
     4     2    36    1
     5     3    15    2
     6     4     7    1
     7     4    13    1
     8     4    29    1
     9     5    14    1
    10     5    15   ar
    11     5    16   ar
    12     6    16   ar
    13     6    18   ar
    14     7     8    1
    15     7     9    1
    16     7    23    1
    17     8    11    1
    18     8    24    1
    19     9    10    1
    20     9    25    1
    21     9    26    1
    22    10    14    1
    23    11    12    1
    24    11    27    1
    25    11    28    1
    26    12    13    1
    27    12    30    1
    28    12    31    1
    29    13    32    1
    30    13    33    1
    31    14    34    1
    32    14    35    1
    33    15    17   ar
    34    16    37    1
    35    17    18   ar
    36    17    19   ar
    37    18    20   ar
    38    19    21   ar
    39    19    38    1
    40    20    22   ar
    41    20    39    1
    42    21    22   ar
    43    21    40    1
    44    22    41    1
