@<TRIPOS>MOLECULE
IMPHY006962
 20 20 0 0 0
SMALL
GASTEIGER

@<TRIPOS>ATOM
      1 N           4.2690    1.0406    0.0000 N.ar    1  UNL1       -0.3368
      2 N           2.5369   -1.9594    0.0000 N.3     1  UNL1       -0.3299
      3 N           4.7690    2.5794    0.0000 N.ar    1  UNL1       -0.2441
      4 C           4.2690    0.0406    0.0000 C.3     1  UNL1        0.0253
      5 C           3.4030   -0.4594    0.0000 C.3     1  UNL1       -0.0226
      6 C           3.4030   -1.4594    0.0000 C.3     1  UNL1       -0.0053
      7 C           3.4600    1.6284    0.0000 C.ar    1  UNL1        0.0240
      8 C           5.0780    1.6284    0.0000 C.ar    1  UNL1        0.0959
      9 C           3.7690    2.5794    0.0000 C.ar    1  UNL1        0.0454
     10 H           4.4810   -0.5420    0.0000 H       1  UNL1        0.0492
     11 H           4.8796    0.1482    0.0000 H       1  UNL1        0.0492
     12 H           3.1909    0.1232    0.0000 H       1  UNL1        0.0295
     13 H           2.7924   -0.5671    0.0000 H       1  UNL1        0.0295
     14 H           3.6150   -2.0420    0.0000 H       1  UNL1        0.0422
     15 H           4.0135   -1.3518    0.0000 H       1  UNL1        0.0422
     16 H           2.8703    1.4368    0.0000 H       1  UNL1        0.0825
     17 H           5.6677    1.4368    0.0000 H       1  UNL1        0.1029
     18 H           3.4046    3.0810    0.0000 H       1  UNL1        0.0845
     19 H           2.5369   -2.5794    0.0000 H       1  UNL1        0.1182
     20 H           2.0000   -1.6494    0.0000 H       1  UNL1        0.1182
@<TRIPOS>BOND
     1     1     4    1
     2     1     7   ar
     3     1     8   ar
     4     2     6    1
     5     2    19    1
     6     2    20    1
     7     3     8   ar
     8     3     9   ar
     9     4     5    1
    10     4    10    1
    11     4    11    1
    12     5     6    1
    13     5    12    1
    14     5    13    1
    15     6    14    1
    16     6    15    1
    17     7     9   ar
    18     7    16    1
    19     8    17    1
    20     9    18    1
