@<TRIPOS>MOLECULE
IMPHY006107
 51 54 0 0 0
SMALL
GASTEIGER

@<TRIPOS>ATOM
      1 O           5.1350   -2.4276    0.0000 O.3     1  UNL1       -0.3313
      2 O           6.8671   -2.4276    0.0000 O.3     1  UNL1       -0.4608
      3 O           5.1350   -5.4276    0.0000 O.3     1  UNL1       -0.3864
      4 O           3.4030   -4.4276    0.0000 O.3     1  UNL1       -0.3865
      5 O           6.8671   -4.4276    0.0000 O.3     1  UNL1       -0.3829
      6 O           2.5369   -2.9276    0.0000 O.3     1  UNL1       -0.3924
      7 O           7.7331    2.0724    0.0000 O.2     1  UNL1       -0.4544
      8 O           5.9793    5.1039    0.0000 O.3     1  UNL1       -0.5058
      9 O           5.1350    3.5724    0.0000 O.2     1  UNL1       -0.2869
     10 O           9.5191    5.1175    0.0000 O.3     1  UNL1       -0.5065
     11 C           5.1350   -4.4276    0.0000 C.3     1  UNL1        0.1152
     12 C           4.2690   -3.9276    0.0000 C.3     1  UNL1        0.1120
     13 C           6.0010   -3.9276    0.0000 C.3     1  UNL1        0.1454
     14 C           4.2690   -2.9276    0.0000 C.3     1  UNL1        0.1140
     15 C           6.0010   -2.9276    0.0000 C.3     1  UNL1        0.2308
     16 C           3.4030   -2.4276    0.0000 C.3     1  UNL1        0.0731
     17 C           6.8671   -1.4276    0.0000 C.ar    1  UNL1        0.1240
     18 C           7.7331   -0.9276    0.0000 C.ar    1  UNL1       -0.0192
     19 C           6.0010   -0.9276    0.0000 C.ar    1  UNL1       -0.0192
     20 C           6.8671    0.5724    0.0000 C.ar    1  UNL1        0.0176
     21 C           7.7331    0.0725    0.0000 C.ar    1  UNL1       -0.0476
     22 C           6.0010    0.0725    0.0000 C.ar    1  UNL1       -0.0476
     23 C           6.8671    1.5724    0.0000 C.ar    1  UNL1        0.1392
     24 C           6.8671    3.5724    0.0000 C.ar    1  UNL1        0.1055
     25 C           7.7331    3.0724    0.0000 C.ar    1  UNL1        0.1462
     26 C           6.0010    2.0724    0.0000 C.ar    1  UNL1        0.0288
     27 C           6.0010    3.0724    0.0000 C.ar    1  UNL1        0.1966
     28 C           6.8510    4.6140    0.0000 C.ar    1  UNL1        0.1347
     29 C           8.6431    3.5793    0.0000 C.ar    1  UNL1        0.0231
     30 C           8.6511    4.6209    0.0000 C.ar    1  UNL1        0.1239
     31 C           7.7490    5.1417    0.0000 C.ar    1  UNL1        0.0223
     32 H           5.6720   -4.7376    0.0000 H       1  UNL1        0.0648
     33 H           3.7320   -3.6176    0.0000 H       1  UNL1        0.0647
     34 H           6.5380   -3.6176    0.0000 H       1  UNL1        0.0683
     35 H           4.2690   -2.3076    0.0000 H       1  UNL1        0.0647
     36 H           6.0010   -2.3076    0.0000 H       1  UNL1        0.1084
     37 H           3.8015   -1.9526    0.0000 H       1  UNL1        0.0584
     38 H           3.0044   -1.9526    0.0000 H       1  UNL1        0.0584
     39 H           5.6720   -5.7376    0.0000 H       1  UNL1        0.2100
     40 H           3.4030   -5.0476    0.0000 H       1  UNL1        0.2100
     41 H           7.4040   -4.1175    0.0000 H       1  UNL1        0.2102
     42 H           2.0000   -2.6176    0.0000 H       1  UNL1        0.2095
     43 H           8.2700   -1.2376    0.0000 H       1  UNL1        0.0654
     44 H           5.4641   -1.2376    0.0000 H       1  UNL1        0.0654
     45 H           8.2700    0.3824    0.0000 H       1  UNL1        0.0626
     46 H           5.4641    0.3824    0.0000 H       1  UNL1        0.0626
     47 H           5.4641    1.7624    0.0000 H       1  UNL1        0.0693
     48 H           9.1764    3.2631    0.0000 H       1  UNL1        0.0691
     49 H           7.7466    5.7617    0.0000 H       1  UNL1        0.0691
     50 H           5.9721    5.7239    0.0000 H       1  UNL1        0.2922
     51 H           9.5214    5.7376    0.0000 H       1  UNL1        0.2921
@<TRIPOS>BOND
     1     1    14    1
     2     1    15    1
     3    15     2    1
     4     2    17    1
     5    11     3    1
     6     3    39    1
     7    12     4    1
     8     4    40    1
     9    13     5    1
    10     5    41    1
    11     6    16    1
    12     6    42    1
    13     7    23   ar
    14     7    25   ar
    15     8    28    1
    16     8    50    1
    17     9    27    2
    18    10    30    1
    19    10    51    1
    20    11    12    1
    21    11    13    1
    22    11    32    1
    23    12    14    1
    24    12    33    1
    25    13    15    1
    26    13    34    1
    27    14    16    1
    28    14    35    1
    29    15    36    1
    30    16    37    1
    31    16    38    1
    32    17    18   ar
    33    17    19   ar
    34    18    21   ar
    35    18    43    1
    36    19    22   ar
    37    19    44    1
    38    20    21   ar
    39    20    22   ar
    40    20    23    1
    41    21    45    1
    42    22    46    1
    43    23    26   ar
    44    24    25   ar
    45    24    27   ar
    46    24    28   ar
    47    25    29   ar
    48    26    27   ar
    49    26    47    1
    50    28    31   ar
    51    29    30   ar
    52    29    48    1
    53    30    31   ar
    54    31    49    1
