@<TRIPOS>MOLECULE
IMPHY006561
 86 90 0 0 0
SMALL
GASTEIGER

@<TRIPOS>ATOM
      1 O           6.1847   -3.3275    0.0000 O.3     1  UNL1       -0.3910
      2 O          11.5367    2.8861    0.0000 O.3     1  UNL1       -0.3887
      3 O           9.7173    3.9180    0.0000 O.3     1  UNL1       -0.3892
      4 O           3.7035   -3.1250    0.0000 O.3     1  UNL1       -0.3885
      5 O           2.5357   -2.3106    0.0000 O.3     1  UNL1       -0.3887
      6 O           4.9217   -3.7437    0.0000 O.3     1  UNL1       -0.3943
      7 C           7.9288   -0.2583    0.0000 C.3     1  UNL1       -0.0193
      8 C           7.9288    0.7417    0.0000 C.3     1  UNL1       -0.0257
      9 C           8.8228    1.2764    0.0000 C.3     1  UNL1       -0.0226
     10 C           7.0628   -0.7583    0.0000 C.3     1  UNL1       -0.0028
     11 C           9.7288    0.7625    0.0000 C.3     1  UNL1       -0.0277
     12 C           8.8228   -0.7929    0.0000 C.3     1  UNL1       -0.0463
     13 C           6.1968   -0.2583    0.0000 C.2     1  UNL1       -0.0631
     14 C           5.2868   -0.7651    0.0000 C.3     1  UNL1       -0.0062
     15 C           5.2787   -1.8067    0.0000 C.3     1  UNL1        0.0545
     16 C           9.7288   -0.2791    0.0000 C.3     1  UNL1       -0.0486
     17 C          10.6726    1.2978    0.0000 C.3     1  UNL1       -0.0032
     18 C           7.0789   -1.7998    0.0000 C.3     1  UNL1       -0.0165
     19 C           7.0628    1.2417    0.0000 C.3     1  UNL1       -0.0306
     20 C           8.7977    2.3611    0.0000 C.3     1  UNL1       -0.0184
     21 C           6.1808   -2.3275    0.0000 C.3     1  UNL1        0.0667
     22 C           8.2709   -1.1979    0.0000 C.3     1  UNL1       -0.0585
     23 C           6.1968    0.7417    0.0000 C.2     1  UNL1       -0.0836
     24 C          10.6726    2.3828    0.0000 C.3     1  UNL1        0.0864
     25 C           4.3599   -0.2010    0.0000 C.3     1  UNL1       -0.0381
     26 C           7.9529    1.7697    0.0000 C.3     1  UNL1       -0.0589
     27 C           7.7056   -1.5243    0.0000 C.3     1  UNL1       -0.0552
     28 C           9.7288    2.9180    0.0000 C.3     1  UNL1        0.0821
     29 C           4.3433   -2.3564    0.0000 C.3     1  UNL1        0.0921
     30 C           3.4120   -0.7290    0.0000 C.3     1  UNL1       -0.0059
     31 C           3.4037   -1.8139    0.0000 C.3     1  UNL1        0.0869
     32 C           5.2710   -2.8067    0.0000 C.3     1  UNL1        0.0552
     33 C          11.6726    1.2939    0.0000 C.3     1  UNL1       -0.0571
     34 C          11.1693    0.4298    0.0000 C.3     1  UNL1       -0.0571
     35 C           2.4121   -0.7174    0.0000 C.3     1  UNL1       -0.0574
     36 C           2.9221    0.1428    0.0000 C.3     1  UNL1       -0.0574
     37 H           8.6682    0.3224    0.0000 H       1  UNL1        0.0315
     38 H          10.4633    0.3347    0.0000 H       1  UNL1        0.0312
     39 H           8.4182   -1.2627    0.0000 H       1  UNL1        0.0271
     40 H           9.2164   -1.2720    0.0000 H       1  UNL1        0.0271
     41 H           5.3031    0.0847    0.0000 H       1  UNL1        0.0354
     42 H           9.9379   -0.8628    0.0000 H       1  UNL1        0.0268
     43 H          10.3397   -0.1730    0.0000 H       1  UNL1        0.0268
     44 H           7.2969   -2.3802    0.0000 H       1  UNL1        0.0299
     45 H           7.6880   -1.6843    0.0000 H       1  UNL1        0.0299
     46 H           7.4613    1.7167    0.0000 H       1  UNL1        0.0310
     47 H           6.6643    1.7167    0.0000 H       1  UNL1        0.0310
     48 H           8.5752    2.9398    0.0000 H       1  UNL1        0.0296
     49 H           8.1894    2.2409    0.0000 H       1  UNL1        0.0296
     50 H           6.7195   -2.6344    0.0000 H       1  UNL1        0.0601
     51 H           7.6884   -1.4100    0.0000 H       1  UNL1        0.0235
     52 H           8.4830   -1.7805    0.0000 H       1  UNL1        0.0235
     53 H           8.8535   -0.9858    0.0000 H       1  UNL1        0.0235
     54 H           5.6598    1.0517    0.0000 H       1  UNL1        0.0572
     55 H          10.6690    3.0028    0.0000 H       1  UNL1        0.0624
     56 H           4.7681    0.2656    0.0000 H       1  UNL1        0.0277
     57 H           3.9700    0.2810    0.0000 H       1  UNL1        0.0277
     58 H           8.2588    2.3090    0.0000 H       1  UNL1        0.0235
     59 H           7.4136    2.0755    0.0000 H       1  UNL1        0.0235
     60 H           7.6471    1.2304    0.0000 H       1  UNL1        0.0235
     61 H           7.2306   -1.9228    0.0000 H       1  UNL1        0.0238
     62 H           8.1041   -1.9993    0.0000 H       1  UNL1        0.0238
     63 H           8.1805   -1.1258    0.0000 H       1  UNL1        0.0238
     64 H          10.2628    3.2332    0.0000 H       1  UNL1        0.0619
     65 H           4.7446   -2.8291    0.0000 H       1  UNL1        0.0626
     66 H           2.8686   -1.5008    0.0000 H       1  UNL1        0.0625
     67 H           5.7187   -3.2356    0.0000 H       1  UNL1        0.0564
     68 H           4.6613   -2.6943    0.0000 H       1  UNL1        0.0564
     69 H          11.6702    0.6739    0.0000 H       1  UNL1        0.0236
     70 H          12.2926    1.2915    0.0000 H       1  UNL1        0.0236
     71 H          11.6750    1.9139    0.0000 H       1  UNL1        0.0236
     72 H          10.6311    0.1219    0.0000 H       1  UNL1        0.0236
     73 H          11.4772   -0.1083    0.0000 H       1  UNL1        0.0236
     74 H          11.7074    0.7378    0.0000 H       1  UNL1        0.0236
     75 H           6.7228   -3.6354    0.0000 H       1  UNL1        0.2098
     76 H           3.4626    0.4465    0.0000 H       1  UNL1        0.0236
     77 H           2.6183    0.6833    0.0000 H       1  UNL1        0.0236
     78 H           2.3816   -0.1610    0.0000 H       1  UNL1        0.0236
     79 H           2.4193   -0.0975    0.0000 H       1  UNL1        0.0236
     80 H           1.7922   -0.7102    0.0000 H       1  UNL1        0.0236
     81 H           2.4049   -1.3374    0.0000 H       1  UNL1        0.0236
     82 H          11.5343    3.5061    0.0000 H       1  UNL1        0.2099
     83 H           9.1768    4.2217    0.0000 H       1  UNL1        0.2099
     84 H           3.0925   -3.0197    0.0000 H       1  UNL1        0.2099
     85 H           2.0000   -1.9985    0.0000 H       1  UNL1        0.2099
     86 H           5.3166   -4.2217    0.0000 H       1  UNL1        0.2094
@<TRIPOS>BOND
     1    21     1    1
     2     1    75    1
     3    24     2    1
     4     2    82    1
     5    28     3    1
     6     3    83    1
     7    29     4    1
     8     4    84    1
     9    31     5    1
    10     5    85    1
    11     6    32    1
    12     6    86    1
    13     7     8    1
    14     7    10    1
    15     7    12    1
    16     7    22    1
    17     8     9    1
    18     8    19    1
    19     8    37    1
    20     9    11    1
    21     9    20    1
    22     9    26    1
    23    10    13    1
    24    10    18    1
    25    10    27    1
    26    11    16    1
    27    11    17    1
    28    11    38    1
    29    12    16    1
    30    12    39    1
    31    12    40    1
    32    13    14    1
    33    13    23    2
    34    14    15    1
    35    14    25    1
    36    14    41    1
    37    15    21    1
    38    15    29    1
    39    15    32    1
    40    16    42    1
    41    16    43    1
    42    17    24    1
    43    17    33    1
    44    17    34    1
    45    18    21    1
    46    18    44    1
    47    18    45    1
    48    19    23    1
    49    19    46    1
    50    19    47    1
    51    20    28    1
    52    20    48    1
    53    20    49    1
    54    21    50    1
    55    22    51    1
    56    22    52    1
    57    22    53    1
    58    23    54    1
    59    24    28    1
    60    24    55    1
    61    25    30    1
    62    25    56    1
    63    25    57    1
    64    26    58    1
    65    26    59    1
    66    26    60    1
    67    27    61    1
    68    27    62    1
    69    27    63    1
    70    28    64    1
    71    29    31    1
    72    29    65    1
    73    30    31    1
    74    30    35    1
    75    30    36    1
    76    31    66    1
    77    32    67    1
    78    32    68    1
    79    33    69    1
    80    33    70    1
    81    33    71    1
    82    34    72    1
    83    34    73    1
    84    34    74    1
    85    35    79    1
    86    35    80    1
    87    35    81    1
    88    36    76    1
    89    36    77    1
    90    36    78    1
