@<TRIPOS>MOLECULE
IMPHY005508
 31 31 0 0 0
SMALL
GASTEIGER

@<TRIPOS>ATOM
      1 O           5.0032   -1.0526    0.0000 O.3     1  UNL1       -0.4436
      2 O           5.0910    1.2952    0.0000 O.3     1  UNL1       -0.3835
      3 O           3.4154   -1.8616    0.0000 O.2     1  UNL1       -0.2504
      4 O           6.4712   -1.3887    0.0000 O.3     1  UNL1       -0.4778
      5 O           7.0064    0.2586    0.0000 O.2     1  UNL1       -0.2464
      6 C           4.5032    0.4862    0.0000 C.3     1  UNL1        0.1261
      7 C           3.6942   -0.1016    0.0000 C.3     1  UNL1        0.0914
      8 C           5.3122   -0.1016    0.0000 C.3     1  UNL1        0.2345
      9 C           2.7431    0.2075    0.0000 C.3     1  UNL1       -0.0310
     10 C           4.0032   -1.0526    0.0000 C.2     1  UNL1        0.3145
     11 C           3.9154    1.2952    0.0000 C.3     1  UNL1       -0.0309
     12 C           5.9000    0.7075    0.0000 C.3     1  UNL1       -0.0113
     13 C           6.2633   -0.4106    0.0000 C.2     1  UNL1        0.3518
     14 C           2.0000   -0.4617    0.0000 C.3     1  UNL1       -0.0618
     15 C           2.5352    1.1856    0.0000 C.3     1  UNL1       -0.0618
     16 H           3.2558   -0.5400    0.0000 H       1  UNL1        0.0446
     17 H           3.2039    0.6223    0.0000 H       1  UNL1        0.0304
     18 H           4.4170    1.6597    0.0000 H       1  UNL1        0.0259
     19 H           3.5510    1.7968    0.0000 H       1  UNL1        0.0259
     20 H           3.4138    0.9308    0.0000 H       1  UNL1        0.0259
     21 H           6.4016    0.3430    0.0000 H       1  UNL1        0.0275
     22 H           6.2644    1.2090    0.0000 H       1  UNL1        0.0275
     23 H           5.3984    1.0719    0.0000 H       1  UNL1        0.0275
     24 H           1.5851   -0.0009    0.0000 H       1  UNL1        0.0233
     25 H           1.5392   -0.8765    0.0000 H       1  UNL1        0.0233
     26 H           2.4149   -0.9224    0.0000 H       1  UNL1        0.0233
     27 H           3.1417    1.3145    0.0000 H       1  UNL1        0.0233
     28 H           2.4063    1.7920    0.0000 H       1  UNL1        0.0233
     29 H           1.9288    1.0567    0.0000 H       1  UNL1        0.0233
     30 H           4.8388    1.8616    0.0000 H       1  UNL1        0.2104
     31 H           7.0609   -1.5803    0.0000 H       1  UNL1        0.2952
@<TRIPOS>BOND
     1     1     8    1
     2     1    10    1
     3     6     2    1
     4     2    30    1
     5     3    10    2
     6     4    13    1
     7     4    31    1
     8     5    13    2
     9     6     7    1
    10     6     8    1
    11     6    11    1
    12     7     9    1
    13     7    10    1
    14     7    16    1
    15     8    12    1
    16     8    13    1
    17     9    14    1
    18     9    15    1
    19     9    17    1
    20    11    18    1
    21    11    19    1
    22    11    20    1
    23    12    21    1
    24    12    22    1
    25    12    23    1
    26    14    24    1
    27    14    25    1
    28    14    26    1
    29    15    27    1
    30    15    28    1
    31    15    29    1
