@<TRIPOS>MOLECULE
IMPHY012930
 50 49 0 0 0
SMALL
GASTEIGER

@<TRIPOS>ATOM
      1 O          12.9292    1.2500    0.0000 O.2     1  UNL1       -0.2927
      2 O           8.5991   -1.2500    0.0000 O.2     1  UNL1       -0.2927
      3 O           2.5369    0.2500    0.0000 O.3     1  UNL1       -0.4806
      4 O           3.4030   -1.2500    0.0000 O.2     1  UNL1       -0.2510
      5 C          15.5273   -0.2500    0.0000 C.3     1  UNL1       -0.0527
      6 C          16.3933    0.2500    0.0000 C.3     1  UNL1       -0.0533
      7 C          14.6613    0.2500    0.0000 C.3     1  UNL1       -0.0461
      8 C           6.0010    0.2500    0.0000 C.3     1  UNL1       -0.0522
      9 C           6.8671   -0.2500    0.0000 C.3     1  UNL1       -0.0460
     10 C           5.1350   -0.2500    0.0000 C.3     1  UNL1       -0.0430
     11 C          17.2594   -0.2500    0.0000 C.3     1  UNL1       -0.0559
     12 C          13.7953   -0.2500    0.0000 C.3     1  UNL1        0.0099
     13 C           7.7331    0.2500    0.0000 C.3     1  UNL1        0.0099
     14 C           4.2690    0.2500    0.0000 C.3     1  UNL1        0.0448
     15 C          18.1254    0.2500    0.0000 C.3     1  UNL1       -0.0653
     16 C          12.9292    0.2500    0.0000 C.2     1  UNL1        0.1561
     17 C           8.5991   -0.2500    0.0000 C.2     1  UNL1        0.1561
     18 C           3.4030   -0.2500    0.0000 C.2     1  UNL1        0.3047
     19 C          12.0632   -0.2500    0.0000 C.2     1  UNL1       -0.0192
     20 C           9.4651    0.2500    0.0000 C.2     1  UNL1       -0.0192
     21 C          11.1972    0.2500    0.0000 C.2     1  UNL1       -0.0584
     22 C          10.3312   -0.2500    0.0000 C.2     1  UNL1       -0.0584
     23 H          15.1288   -0.7249    0.0000 H       1  UNL1        0.0265
     24 H          15.9258   -0.7249    0.0000 H       1  UNL1        0.0265
     25 H          16.7919    0.7249    0.0000 H       1  UNL1        0.0265
     26 H          15.9948    0.7249    0.0000 H       1  UNL1        0.0265
     27 H          15.0598    0.7249    0.0000 H       1  UNL1        0.0269
     28 H          14.2628    0.7249    0.0000 H       1  UNL1        0.0269
     29 H           6.3996    0.7249    0.0000 H       1  UNL1        0.0266
     30 H           5.6025    0.7249    0.0000 H       1  UNL1        0.0266
     31 H           6.4685   -0.7249    0.0000 H       1  UNL1        0.0269
     32 H           7.2656   -0.7249    0.0000 H       1  UNL1        0.0269
     33 H           4.7365   -0.7249    0.0000 H       1  UNL1        0.0270
     34 H           5.5335   -0.7249    0.0000 H       1  UNL1        0.0270
     35 H          16.8608   -0.7249    0.0000 H       1  UNL1        0.0263
     36 H          17.6579   -0.7249    0.0000 H       1  UNL1        0.0263
     37 H          13.3967   -0.7249    0.0000 H       1  UNL1        0.0345
     38 H          14.1938   -0.7249    0.0000 H       1  UNL1        0.0345
     39 H           8.1316    0.7249    0.0000 H       1  UNL1        0.0345
     40 H           7.3346    0.7249    0.0000 H       1  UNL1        0.0345
     41 H           4.6675    0.7249    0.0000 H       1  UNL1        0.0377
     42 H           3.8705    0.7249    0.0000 H       1  UNL1        0.0377
     43 H          18.4354   -0.2869    0.0000 H       1  UNL1        0.0230
     44 H          18.6623    0.5600    0.0000 H       1  UNL1        0.0230
     45 H          17.8154    0.7869    0.0000 H       1  UNL1        0.0230
     46 H          12.0632   -0.8700    0.0000 H       1  UNL1        0.0652
     47 H           9.4651    0.8700    0.0000 H       1  UNL1        0.0652
     48 H          11.1972    0.8700    0.0000 H       1  UNL1        0.0619
     49 H          10.3312   -0.8700    0.0000 H       1  UNL1        0.0619
     50 H           2.0000   -0.0600    0.0000 H       1  UNL1        0.2951
@<TRIPOS>BOND
     1     1    16    2
     2     2    17    2
     3     3    18    1
     4     3    50    1
     5     4    18    2
     6     5     6    1
     7     5     7    1
     8     5    23    1
     9     5    24    1
    10     6    11    1
    11     6    25    1
    12     6    26    1
    13     7    12    1
    14     7    27    1
    15     7    28    1
    16     8     9    1
    17     8    10    1
    18     8    29    1
    19     8    30    1
    20     9    13    1
    21     9    31    1
    22     9    32    1
    23    10    14    1
    24    10    33    1
    25    10    34    1
    26    11    15    1
    27    11    35    1
    28    11    36    1
    29    12    16    1
    30    12    37    1
    31    12    38    1
    32    13    17    1
    33    13    39    1
    34    13    40    1
    35    14    18    1
    36    14    41    1
    37    14    42    1
    38    15    43    1
    39    15    44    1
    40    15    45    1
    41    16    19    1
    42    17    20    1
    43    19    21    2
    44    19    46    1
    45    20    22    2
    46    20    47    1
    47    21    22    1
    48    21    48    1
    49    22    49    1
