@<TRIPOS>MOLECULE
IMPHY002906
 23 22 0 0 0
SMALL
GASTEIGER

@<TRIPOS>ATOM
      1 O           2.5369   -0.4050    0.0000 O.3     1  UNL1       -0.3917
      2 O           6.8671    0.0950    0.0000 O.3     1  UNL1       -0.4795
      3 OXT         6.0010   -1.4050    0.0000 O.2     1  UNL1       -0.2492
      4 N           5.1350    1.0950    0.0000 N.3     1  UNL1       -0.3181
      5 C           4.2690   -0.4050    0.0000 C.3     1  UNL1        0.0075
      6 C           3.4030    0.0950    0.0000 C.3     1  UNL1        0.0569
      7 CA          5.1350    0.0950    0.0000 C.3     1  UNL1        0.1082
      8 C           4.2690   -1.4050    0.0000 C.3     1  UNL1       -0.0581
      9 C           3.4030    1.0950    0.0000 C.3     1  UNL1       -0.0386
     10 C           6.0010   -0.4050    0.0000 C.2     1  UNL1        0.3221
     11 H           4.8059   -0.7150    0.0000 H       1  UNL1        0.0343
     12 H           3.4030   -0.7550    0.0000 H       1  UNL1        0.0594
     13 HA          5.6720    0.4050    0.0000 H       1  UNL1        0.0577
     14 H           3.6490   -1.4050    0.0000 H       1  UNL1        0.0234
     15 H           4.2690   -2.0250    0.0000 H       1  UNL1        0.0234
     16 H           4.8890   -1.4050    0.0000 H       1  UNL1        0.0234
     17 H           4.0230    1.0950    0.0000 H       1  UNL1        0.0255
     18 H           3.4030    1.7150    0.0000 H       1  UNL1        0.0255
     19 H           2.7830    1.0950    0.0000 H       1  UNL1        0.0255
     20 H1          5.6720    1.4050    0.0000 H       1  UNL1        0.1190
     21 H2          4.5981    1.4050    0.0000 H       1  UNL1        0.1190
     22 H           2.0000   -0.0950    0.0000 H       1  UNL1        0.2098
     23 H           7.4040   -0.2150    0.0000 H       1  UNL1        0.2951
@<TRIPOS>BOND
     1     1     6    1
     2     1    22    1
     3     2    10    1
     4     2    23    1
     5     3    10    2
     6     7     4    1
     7     4    20    1
     8     4    21    1
     9     5     6    1
    10     5     7    1
    11     5     8    1
    12     5    11    1
    13     6     9    1
    14     6    12    1
    15     7    10    1
    16     7    13    1
    17     8    14    1
    18     8    15    1
    19     8    16    1
    20     9    17    1
    21     9    18    1
    22     9    19    1
