@<TRIPOS>MOLECULE
IMPHY012696
 33 35 0 0 0
SMALL
GASTEIGER

@<TRIPOS>ATOM
      1 O           2.0000    0.0307    0.0000 O.2     1  UNL1       -0.2677
      2 O           9.0893   -1.1796    0.0000 O.2     1  UNL1       -0.2759
      3 N           7.8646    0.0452    0.0000 N.am    1  UNL1       -0.3008
      4 N           3.7657   -0.0960    0.0000 N.ar    1  UNL1       -0.3117
      5 C           6.0745    1.1764    0.0000 C.3     1  UNL1       -0.0065
      6 C           5.8157    0.2105    0.0000 C.3     1  UNL1        0.0157
      7 C           5.3379    2.1591    0.0000 C.3     1  UNL1       -0.0375
      8 C           7.5062    0.9788    0.0000 C.3     1  UNL1        0.0191
      9 C           4.0413    0.8653    0.0000 C.3     1  UNL1        0.0306
     10 C           7.0874   -0.5841    0.0000 C.3     1  UNL1        0.0228
     11 C           4.5947   -0.6551    0.0000 C.ar    1  UNL1        0.0266
     12 C           4.5381   -1.6952    0.0000 C.ar    1  UNL1       -0.0418
     13 C           2.8225   -0.5381    0.0000 C.ar    1  UNL1        0.2515
     14 C           8.8305   -0.2136    0.0000 C.2     1  UNL1        0.2125
     15 C           3.6054   -2.1591    0.0000 C.ar    1  UNL1       -0.0550
     16 C           2.7418   -1.5766    0.0000 C.ar    1  UNL1        0.0030
     17 C           9.5376    0.4935    0.0000 C.3     1  UNL1        0.0124
     18 H           6.0791    0.5565    0.0000 H       1  UNL1        0.0333
     19 H           6.3180    0.5740    0.0000 H       1  UNL1        0.0379
     20 H           5.6557    2.6914    0.0000 H       1  UNL1        0.0276
     21 H           4.7248    2.2510    0.0000 H       1  UNL1        0.0276
     22 H           8.1140    1.1011    0.0000 H       1  UNL1        0.0468
     23 H           7.4871    1.5985    0.0000 H       1  UNL1        0.0468
     24 H           4.0362    1.4853    0.0000 H       1  UNL1        0.0496
     25 H           3.4270    0.9491    0.0000 H       1  UNL1        0.0496
     26 H           6.7028   -1.0705    0.0000 H       1  UNL1        0.0471
     27 H           7.5284   -1.0200    0.0000 H       1  UNL1        0.0471
     28 H           5.0560   -2.0360    0.0000 H       1  UNL1        0.0635
     29 H           3.5645   -2.7777    0.0000 H       1  UNL1        0.0620
     30 H           2.1836   -1.8462    0.0000 H       1  UNL1        0.0672
     31 H           9.9760    0.0551    0.0000 H       1  UNL1        0.0323
     32 H           9.9760    0.9319    0.0000 H       1  UNL1        0.0323
     33 H           9.0992    0.9319    0.0000 H       1  UNL1        0.0323
@<TRIPOS>BOND
     1     1    13    2
     2     2    14    2
     3     3     8    1
     4     3    10    1
     5     3    14   am
     6     4     9    1
     7     4    11   ar
     8     4    13   ar
     9     5     7    1
    10     5     8    1
    11     5     9    1
    12     5    18    1
    13     6     7    1
    14     6    10    1
    15     6    11    1
    16     6    19    1
    17     7    20    1
    18     7    21    1
    19     8    22    1
    20     8    23    1
    21     9    24    1
    22     9    25    1
    23    10    26    1
    24    10    27    1
    25    11    12   ar
    26    12    15   ar
    27    12    28    1
    28    13    16   ar
    29    14    17    1
    30    15    16   ar
    31    15    29    1
    32    16    30    1
    33    17    31    1
    34    17    32    1
    35    17    33    1
