@<TRIPOS>MOLECULE
IMPHY010237
 77 81 0 0 0
SMALL
GASTEIGER

@<TRIPOS>ATOM
      1 O           6.0010   -0.9050    0.0000 O.3     1  UNL1       -0.3399
      2 O           6.8671    1.5950    0.0000 O.3     1  UNL1       -0.3609
      3 O           4.2690   -0.9050    0.0000 O.3     1  UNL1       -0.3431
      4 O           4.2690    0.0950    0.0000 O.3     1  UNL1       -0.3865
      5 O           4.2690    2.0950    0.0000 O.3     1  UNL1       -0.3865
      6 O           6.0010   -2.9050    0.0000 O.3     1  UNL1       -0.3841
      7 O           4.2690   -3.9050    0.0000 O.3     1  UNL1       -0.3864
      8 O           2.5369   -2.9050    0.0000 O.3     1  UNL1       -0.3866
      9 O           5.1350    3.5950    0.0000 O.3     1  UNL1       -0.3924
     10 O           6.8671   -1.4050    0.0000 O.3     1  UNL1       -0.4945
     11 O           8.5991    1.5950    0.0000 O.3     1  UNL1       -0.5054
     12 O          10.3591   -1.4397    0.0000 O.2     1  UNL1       -0.4544
     13 O          10.3475    1.6296    0.0000 O.2     1  UNL1       -0.2869
     14 O          14.7215   -2.9392    0.0000 O.3     1  UNL1       -0.4951
     15 C           6.0010    0.0950    0.0000 C.3     1  UNL1        0.1204
     16 C           5.1350    0.5950    0.0000 C.3     1  UNL1        0.1124
     17 C           6.8671    0.5950    0.0000 C.3     1  UNL1        0.1197
     18 C           5.1350    1.5950    0.0000 C.3     1  UNL1        0.1118
     19 C           6.0010    2.0950    0.0000 C.3     1  UNL1        0.1108
     20 C           5.1350   -1.4050    0.0000 C.3     1  UNL1        0.1883
     21 C           5.1350   -2.4050    0.0000 C.3     1  UNL1        0.1341
     22 C           4.2690   -2.9050    0.0000 C.3     1  UNL1        0.1140
     23 C           3.4030   -2.4050    0.0000 C.3     1  UNL1        0.1095
     24 C           3.4030   -1.4050    0.0000 C.3     1  UNL1        0.0873
     25 C           7.7331    0.0950    0.0000 C.ar    1  UNL1        0.0676
     26 C           6.0010    3.0950    0.0000 C.3     1  UNL1        0.0729
     27 C           2.5369   -0.9050    0.0000 C.3     1  UNL1       -0.0361
     28 C           8.5991    0.5950    0.0000 C.ar    1  UNL1        0.1404
     29 C           7.7331   -0.9050    0.0000 C.ar    1  UNL1        0.1328
     30 C           9.4651    0.0950    0.0000 C.ar    1  UNL1        0.1058
     31 C           8.5991   -1.4050    0.0000 C.ar    1  UNL1        0.0237
     32 C           9.4651   -0.9050    0.0000 C.ar    1  UNL1        0.1463
     33 C          10.3591    0.6297    0.0000 C.ar    1  UNL1        0.1966
     34 C          11.2651    0.1158    0.0000 C.ar    1  UNL1        0.0288
     35 C          11.2651   -0.9258    0.0000 C.ar    1  UNL1        0.1392
     36 C           6.8671   -2.4050    0.0000 C.3     1  UNL1        0.0788
     37 C          12.1292   -1.4292    0.0000 C.ar    1  UNL1        0.0176
     38 C          12.9972   -0.9325    0.0000 C.ar    1  UNL1       -0.0476
     39 C          12.1254   -2.4291    0.0000 C.ar    1  UNL1       -0.0476
     40 C          13.8613   -1.4358    0.0000 C.ar    1  UNL1       -0.0193
     41 C          12.9895   -2.9325    0.0000 C.ar    1  UNL1       -0.0193
     42 C          13.8574   -2.4358    0.0000 C.ar    1  UNL1        0.1201
     43 C          15.5895   -2.4425    0.0000 C.3     1  UNL1        0.0788
     44 H           6.5380   -0.2150    0.0000 H       1  UNL1        0.0653
     45 H           4.5981    0.9050    0.0000 H       1  UNL1        0.0647
     46 H           7.6032    1.0200    0.0000 H       1  UNL1        0.0676
     47 H           5.1350    2.2150    0.0000 H       1  UNL1        0.0647
     48 H           6.5380    2.4050    0.0000 H       1  UNL1        0.0646
     49 H           5.1350   -0.7850    0.0000 H       1  UNL1        0.0938
     50 H           5.1350   -3.0250    0.0000 H       1  UNL1        0.0671
     51 H           3.7320   -3.2150    0.0000 H       1  UNL1        0.0648
     52 H           2.8660   -2.0950    0.0000 H       1  UNL1        0.0646
     53 H           3.4030   -0.7850    0.0000 H       1  UNL1        0.0621
     54 H           6.6116    2.9873    0.0000 H       1  UNL1        0.0584
     55 H           6.2131    3.6776    0.0000 H       1  UNL1        0.0584
     56 H           3.7320    0.4050    0.0000 H       1  UNL1        0.2100
     57 H           3.7320    1.7850    0.0000 H       1  UNL1        0.2100
     58 H           2.8469   -0.3681    0.0000 H       1  UNL1        0.0255
     59 H           2.0000   -0.5950    0.0000 H       1  UNL1        0.0255
     60 H           2.2269   -1.4419    0.0000 H       1  UNL1        0.0255
     61 H           6.0010   -3.5250    0.0000 H       1  UNL1        0.2101
     62 H           3.7320   -4.2150    0.0000 H       1  UNL1        0.2100
     63 H           2.0000   -2.5950    0.0000 H       1  UNL1        0.2100
     64 H           8.5991   -2.0250    0.0000 H       1  UNL1        0.0691
     65 H           5.1350    4.2150    0.0000 H       1  UNL1        0.2095
     66 H           9.1360    1.9050    0.0000 H       1  UNL1        0.2922
     67 H          11.8009    0.4279    0.0000 H       1  UNL1        0.0693
     68 H           6.2471   -2.4050    0.0000 H       1  UNL1        0.0660
     69 H           6.8671   -3.0250    0.0000 H       1  UNL1        0.0660
     70 H           7.4871   -2.4050    0.0000 H       1  UNL1        0.0660
     71 H          12.9996   -0.3125    0.0000 H       1  UNL1        0.0626
     72 H          11.5873   -2.7371    0.0000 H       1  UNL1        0.0626
     73 H          14.3994   -1.1279    0.0000 H       1  UNL1        0.0654
     74 H          12.9871   -3.5525    0.0000 H       1  UNL1        0.0654
     75 H          15.8974   -2.9806    0.0000 H       1  UNL1        0.0660
     76 H          16.1276   -2.1346    0.0000 H       1  UNL1        0.0660
     77 H          15.2815   -1.9044    0.0000 H       1  UNL1        0.0660
@<TRIPOS>BOND
     1    15     1    1
     2    20     1    1
     3     2    17    1
     4     2    19    1
     5     3    20    1
     6     3    24    1
     7    16     4    1
     8     4    56    1
     9    18     5    1
    10     5    57    1
    11    21     6    1
    12     6    61    1
    13    22     7    1
    14     7    62    1
    15    23     8    1
    16     8    63    1
    17     9    26    1
    18     9    65    1
    19    10    29    1
    20    10    36    1
    21    11    28    1
    22    11    66    1
    23    12    32   ar
    24    12    35   ar
    25    13    33    2
    26    14    42    1
    27    14    43    1
    28    15    16    1
    29    15    17    1
    30    15    44    1
    31    16    18    1
    32    16    45    1
    33    17    25    1
    34    17    46    1
    35    18    19    1
    36    18    47    1
    37    19    26    1
    38    19    48    1
    39    20    21    1
    40    20    49    1
    41    21    22    1
    42    21    50    1
    43    22    23    1
    44    22    51    1
    45    23    24    1
    46    23    52    1
    47    24    27    1
    48    24    53    1
    49    25    28   ar
    50    25    29   ar
    51    26    54    1
    52    26    55    1
    53    27    58    1
    54    27    59    1
    55    27    60    1
    56    28    30   ar
    57    29    31   ar
    58    30    32   ar
    59    30    33   ar
    60    31    32   ar
    61    31    64    1
    62    33    34   ar
    63    34    35   ar
    64    34    67    1
    65    35    37    1
    66    36    68    1
    67    36    69    1
    68    36    70    1
    69    37    38   ar
    70    37    39   ar
    71    38    40   ar
    72    38    71    1
    73    39    41   ar
    74    39    72    1
    75    40    42   ar
    76    40    73    1
    77    41    42   ar
    78    41    74    1
    79    43    75    1
    80    43    76    1
    81    43    77    1
