@<TRIPOS>MOLECULE
IMPHY005392
 42 43 0 0 0
SMALL
GASTEIGER

@<TRIPOS>ATOM
      1 O           7.2641   -0.7500    0.0000 O.3     1  UNL1       -0.3886
      2 O           8.9962    1.2500    0.0000 O.3     1  UNL1       -0.3866
      3 O           4.6660    1.7500    0.0000 O.3     1  UNL1       -0.4940
      4 O           6.3981   -1.2500    0.0000 O.2     1  UNL1       -0.2673
      5 N           4.6660   -1.2500    0.0000 N.ar    1  UNL1       -0.3107
      6 C           7.2641    0.2500    0.0000 C.3     1  UNL1        0.0876
      7 C           8.1301    0.7500    0.0000 C.3     1  UNL1        0.0865
      8 C           6.3981    0.7500    0.0000 C.3     1  UNL1        0.0098
      9 C           5.5321    0.2500    0.0000 C.ar    1  UNL1        0.0618
     10 C           8.6301   -0.1160    0.0000 C.3     1  UNL1       -0.0339
     11 C           7.6301    1.6160    0.0000 C.3     1  UNL1       -0.0339
     12 C           4.6660    0.7500    0.0000 C.ar    1  UNL1        0.1376
     13 C           5.5321   -0.7500    0.0000 C.ar    1  UNL1        0.2583
     14 C           3.8000    0.2500    0.0000 C.ar    1  UNL1        0.0406
     15 C           3.8000   -0.7500    0.0000 C.ar    1  UNL1        0.0552
     16 C           2.9061    0.7847    0.0000 C.ar    1  UNL1       -0.0491
     17 C           2.9061   -1.2847    0.0000 C.ar    1  UNL1       -0.0374
     18 C           4.6660   -2.2500    0.0000 C.3     1  UNL1        0.0153
     19 C           2.0000    0.2708    0.0000 C.ar    1  UNL1       -0.0610
     20 C           2.0000   -0.7708    0.0000 C.ar    1  UNL1       -0.0598
     21 C           3.8000    2.2500    0.0000 C.3     1  UNL1        0.0788
     22 H           7.8010   -0.0600    0.0000 H       1  UNL1        0.0625
     23 H           6.7966    1.2250    0.0000 H       1  UNL1        0.0342
     24 H           5.9996    1.2250    0.0000 H       1  UNL1        0.0342
     25 H           8.0932   -0.4260    0.0000 H       1  UNL1        0.0258
     26 H           8.1671    1.9260    0.0000 H       1  UNL1        0.0258
     27 H           7.3201    2.1530    0.0000 H       1  UNL1        0.0258
     28 H           7.0932    1.3060    0.0000 H       1  UNL1        0.0258
     29 H           8.9401   -0.6530    0.0000 H       1  UNL1        0.0258
     30 H           9.1671    0.1940    0.0000 H       1  UNL1        0.0258
     31 H           7.8010   -1.0600    0.0000 H       1  UNL1        0.2099
     32 H           9.5331    0.9400    0.0000 H       1  UNL1        0.2102
     33 H           2.9132    1.4046    0.0000 H       1  UNL1        0.0625
     34 H           2.9132   -1.9046    0.0000 H       1  UNL1        0.0638
     35 H           4.0460   -2.2500    0.0000 H       1  UNL1        0.0457
     36 H           4.6660   -2.8700    0.0000 H       1  UNL1        0.0457
     37 H           5.2860   -2.2500    0.0000 H       1  UNL1        0.0457
     38 H           1.4643    0.5829    0.0000 H       1  UNL1        0.0618
     39 H           1.4643   -1.0829    0.0000 H       1  UNL1        0.0618
     40 H           4.1100    2.7869    0.0000 H       1  UNL1        0.0660
     41 H           3.2631    2.5600    0.0000 H       1  UNL1        0.0660
     42 H           3.4900    1.7131    0.0000 H       1  UNL1        0.0660
@<TRIPOS>BOND
     1     6     1    1
     2     1    31    1
     3     2     7    1
     4     2    32    1
     5     3    12    1
     6     3    21    1
     7     4    13    2
     8     5    13   ar
     9     5    15   ar
    10     5    18    1
    11     6     7    1
    12     6     8    1
    13     6    22    1
    14     7    10    1
    15     7    11    1
    16     8     9    1
    17     8    23    1
    18     8    24    1
    19     9    12   ar
    20     9    13   ar
    21    10    25    1
    22    10    29    1
    23    10    30    1
    24    11    26    1
    25    11    27    1
    26    11    28    1
    27    12    14   ar
    28    14    15   ar
    29    14    16   ar
    30    15    17   ar
    31    16    19   ar
    32    16    33    1
    33    17    20   ar
    34    17    34    1
    35    18    35    1
    36    18    36    1
    37    18    37    1
    38    19    20   ar
    39    19    38    1
    40    20    39    1
    41    21    40    1
    42    21    41    1
    43    21    42    1
