@<TRIPOS>MOLECULE
IMPHY011104
 39 41 0 0 0
SMALL
GASTEIGER

@<TRIPOS>ATOM
      1 O           2.7320   -1.8170    0.0000 O.3     1  UNL1       -0.3650
      2 O           6.3580   -0.3516    0.0000 O.2     1  UNL1       -0.4216
      3 O           2.8660   -0.3170    0.0000 O.3     1  UNL1       -0.4946
      4 O           4.5981    2.6830    0.0000 O.3     1  UNL1       -0.4943
      5 O           8.1282   -0.3411    0.0000 O.2     1  UNL1       -0.2452
      6 C           3.2320   -2.6830    0.0000 C.3     1  UNL1        0.0907
      7 C           3.7320   -1.8170    0.0000 C.3     1  UNL1        0.0920
      8 C           4.5981   -1.3170    0.0000 C.3     1  UNL1        0.0084
      9 C           2.3660   -3.1830    0.0000 C.3     1  UNL1       -0.0336
     10 C           4.0981   -3.1830    0.0000 C.3     1  UNL1       -0.0336
     11 C           4.5981   -0.3170    0.0000 C.ar    1  UNL1        0.0399
     12 C           5.4641    0.1830    0.0000 C.ar    1  UNL1        0.1493
     13 C           3.7320    0.1830    0.0000 C.ar    1  UNL1        0.1303
     14 C           5.4641    1.1830    0.0000 C.ar    1  UNL1        0.0597
     15 C           3.7320    1.1830    0.0000 C.ar    1  UNL1        0.0228
     16 C           4.5981    1.6830    0.0000 C.ar    1  UNL1        0.1342
     17 C           6.3580    1.7177    0.0000 C.ar    1  UNL1       -0.0408
     18 C           7.2641    0.1622    0.0000 C.ar    1  UNL1        0.3372
     19 C           7.2641    1.2038    0.0000 C.ar    1  UNL1        0.0237
     20 C           2.0000    0.1830    0.0000 C.3     1  UNL1        0.0788
     21 C           3.7320    3.1830    0.0000 C.3     1  UNL1        0.0788
     22 H           3.5716   -1.2181    0.0000 H       1  UNL1        0.0628
     23 H           4.8101   -1.8996    0.0000 H       1  UNL1        0.0341
     24 H           5.2087   -1.2093    0.0000 H       1  UNL1        0.0341
     25 H           3.7881   -3.7200    0.0000 H       1  UNL1        0.0258
     26 H           4.6350   -3.4930    0.0000 H       1  UNL1        0.0258
     27 H           4.4081   -2.6461    0.0000 H       1  UNL1        0.0258
     28 H           2.0560   -2.6461    0.0000 H       1  UNL1        0.0258
     29 H           1.8291   -3.4930    0.0000 H       1  UNL1        0.0258
     30 H           2.6760   -3.7200    0.0000 H       1  UNL1        0.0258
     31 H           3.1951    1.4930    0.0000 H       1  UNL1        0.0691
     32 H           6.3509    2.3376    0.0000 H       1  UNL1        0.0628
     33 H           7.7998    1.5159    0.0000 H       1  UNL1        0.0689
     34 H           2.3100    0.7199    0.0000 H       1  UNL1        0.0660
     35 H           1.4631    0.4930    0.0000 H       1  UNL1        0.0660
     36 H           1.6900   -0.3539    0.0000 H       1  UNL1        0.0660
     37 H           4.0420    3.7200    0.0000 H       1  UNL1        0.0660
     38 H           3.1951    3.4930    0.0000 H       1  UNL1        0.0660
     39 H           3.4220    2.6461    0.0000 H       1  UNL1        0.0660
@<TRIPOS>BOND
     1     1     6    1
     2     1     7    1
     3     2    12   ar
     4     2    18   ar
     5     3    13    1
     6     3    20    1
     7     4    16    1
     8     4    21    1
     9     5    18    2
    10     6     7    1
    11     6     9    1
    12     6    10    1
    13     7     8    1
    14     7    22    1
    15     8    11    1
    16     8    23    1
    17     8    24    1
    18     9    28    1
    19     9    29    1
    20     9    30    1
    21    10    25    1
    22    10    26    1
    23    10    27    1
    24    11    12   ar
    25    11    13   ar
    26    12    14   ar
    27    13    15   ar
    28    14    16   ar
    29    14    17   ar
    30    15    16   ar
    31    15    31    1
    32    17    19   ar
    33    17    32    1
    34    18    19   ar
    35    19    33    1
    36    20    34    1
    37    20    35    1
    38    20    36    1
    39    21    37    1
    40    21    38    1
    41    21    39    1
