@<TRIPOS>MOLECULE
IMPHY016033
 38 39 0 0 0
SMALL
GASTEIGER

@<TRIPOS>ATOM
      1 O           7.0064   -0.6833    0.0000 O.3     1  UNL1       -0.4566
      2 O           7.9575    1.8013    0.0000 O.3     1  UNL1       -0.3840
      3 O           4.4374    1.1833    0.0000 O.2     1  UNL1       -0.2921
      4 O           7.2852   -2.4434    0.0000 O.2     1  UNL1       -0.2453
      5 O           2.5352    0.2438    0.0000 O.2     1  UNL1       -0.2977
      6 C           6.1974    0.9045    0.0000 C.3     1  UNL1        0.0910
      7 C           6.1974   -0.0955    0.0000 C.3     1  UNL1        0.1231
      8 C           5.3884   -0.6833    0.0000 C.3     1  UNL1        0.0286
      9 C           7.0064    1.4923    0.0000 C.3     1  UNL1        0.0949
     10 C           4.4374   -0.3743    0.0000 C.3     1  UNL1       -0.0359
     11 C           5.3884    1.4923    0.0000 C.2     1  UNL1        0.1655
     12 C           5.6974   -1.6343    0.0000 C.2     1  UNL1        0.0361
     13 C           6.6974    2.4434    0.0000 C.2     1  UNL1       -0.0490
     14 C           7.5942    0.6833    0.0000 C.3     1  UNL1       -0.0316
     15 C           5.6974    2.4434    0.0000 C.2     1  UNL1       -0.0199
     16 C           6.6974   -1.6343    0.0000 C.2     1  UNL1        0.3353
     17 C           3.6942   -1.0434    0.0000 C.3     1  UNL1        0.0062
     18 C           5.1096   -2.4434    0.0000 C.2     1  UNL1       -0.0883
     19 C           2.7431   -0.7344    0.0000 C.2     1  UNL1        0.1303
     20 C           2.0000   -1.4035    0.0000 C.3     1  UNL1       -0.0061
     21 H           5.4401    0.5186    0.0000 H       1  UNL1        0.0449
     22 H           6.9548    0.2904    0.0000 H       1  UNL1        0.0748
     23 H           4.9500   -1.1217    0.0000 H       1  UNL1        0.0387
     24 H           4.7284    0.1732    0.0000 H       1  UNL1        0.0276
     25 H           3.9488    0.0075    0.0000 H       1  UNL1        0.0276
     26 H           7.0618    2.9449    0.0000 H       1  UNL1        0.0601
     27 H           7.0926    0.3188    0.0000 H       1  UNL1        0.0261
     28 H           7.9586    0.1817    0.0000 H       1  UNL1        0.0261
     29 H           8.0958    1.0477    0.0000 H       1  UNL1        0.0261
     30 H           5.3330    2.9449    0.0000 H       1  UNL1        0.0650
     31 H           3.4031   -1.5908    0.0000 H       1  UNL1        0.0342
     32 H           4.1828   -1.4251    0.0000 H       1  UNL1        0.0342
     33 H           8.0864    2.4078    0.0000 H       1  UNL1        0.2106
     34 H           4.4930   -2.3785    0.0000 H       1  UNL1        0.0540
     35 H           5.3618   -3.0098    0.0000 H       1  UNL1        0.0540
     36 H           1.5851   -0.9428    0.0000 H       1  UNL1        0.0306
     37 H           1.5392   -1.8184    0.0000 H       1  UNL1        0.0306
     38 H           2.4149   -1.8642    0.0000 H       1  UNL1        0.0306
@<TRIPOS>BOND
     1     1     7    1
     2     1    16    1
     3     9     2    1
     4     2    33    1
     5     3    11    2
     6     4    16    2
     7     5    19    2
     8     6     7    1
     9     6     9    1
    10     6    11    1
    11     6    21    1
    12     7     8    1
    13     7    22    1
    14     8    10    1
    15     8    12    1
    16     8    23    1
    17     9    13    1
    18     9    14    1
    19    10    17    1
    20    10    24    1
    21    10    25    1
    22    11    15    1
    23    12    16    1
    24    12    18    2
    25    13    15    2
    26    13    26    1
    27    14    27    1
    28    14    28    1
    29    14    29    1
    30    15    30    1
    31    17    19    1
    32    17    31    1
    33    17    32    1
    34    18    34    1
    35    18    35    1
    36    19    20    1
    37    20    36    1
    38    20    37    1
    39    20    38    1
