@<TRIPOS>MOLECULE
IMPHY001368
 49 51 0 0 0
SMALL
GASTEIGER

@<TRIPOS>ATOM
      1 O           8.1828    3.5583    0.0000 O.3     1  UNL1       -0.3902
      2 O          10.1948    0.0952    0.0000 O.2     1  UNL1       -0.4919
      3 O           8.3912   -1.1213    0.0000 O.2     1  UNL1       -0.2884
      4 O           5.8061   -3.2292    0.0000 O.3     1  UNL1       -0.4914
      5 O           3.8061   -3.2292    0.0000 O.3     1  UNL1       -0.4915
      6 C           6.9462    1.7096    0.0000 C.3     1  UNL1        0.0231
      7 C           7.2051    0.7437    0.0000 C.3     1  UNL1        0.0587
      8 C           7.6828    2.6923    0.0000 C.3     1  UNL1        0.0751
      9 C           5.8061    0.2349    0.0000 C.3     1  UNL1       -0.0025
     10 C           5.5473    1.2008    0.0000 C.3     1  UNL1       -0.0335
     11 C           6.6874    2.6756    0.0000 C.3     1  UNL1       -0.0234
     12 C           8.9795    1.3985    0.0000 C.2     1  UNL1       -0.0298
     13 C           8.4261   -0.1219    0.0000 C.2     1  UNL1        0.2031
     14 C           5.3061   -0.6311    0.0000 C.ar    1  UNL1       -0.0398
     15 C           9.2551    0.4373    0.0000 C.2     1  UNL1        0.1594
     16 C           5.7215    2.9344    0.0000 C.2     1  UNL1       -0.0902
     17 C           5.8061   -1.4972    0.0000 C.ar    1  UNL1       -0.0128
     18 C           4.3061   -0.6311    0.0000 C.ar    1  UNL1       -0.0546
     19 C           5.3061   -2.3632    0.0000 C.ar    1  UNL1        0.1617
     20 C           3.8061   -1.4972    0.0000 C.ar    1  UNL1       -0.0160
     21 C           5.4627    3.9003    0.0000 C.2     1  UNL1       -0.1026
     22 C           4.3061   -2.3632    0.0000 C.ar    1  UNL1        0.1615
     23 C          10.9609    0.7380    0.0000 C.3     1  UNL1        0.0789
     24 C           5.3061   -4.0952    0.0000 C.3     1  UNL1        0.0790
     25 C           2.8061   -3.2292    0.0000 C.3     1  UNL1        0.0790
     26 H           7.4250   -0.0773    0.0000 H       1  UNL1        0.0413
     27 H           7.1654    3.0338    0.0000 H       1  UNL1        0.0609
     28 H           6.2046   -0.2401    0.0000 H       1  UNL1        0.0357
     29 H           4.9533    1.0231    0.0000 H       1  UNL1        0.0281
     30 H           5.3524    1.7894    0.0000 H       1  UNL1        0.0281
     31 H           6.7414    3.2932    0.0000 H       1  UNL1        0.0316
     32 H           7.3051    2.7296    0.0000 H       1  UNL1        0.0316
     33 H           9.3891    1.8639    0.0000 H       1  UNL1        0.0616
     34 H           7.8728    4.0952    0.0000 H       1  UNL1        0.2098
     35 H           5.2831    2.4960    0.0000 H       1  UNL1        0.0567
     36 H           6.4261   -1.4972    0.0000 H       1  UNL1        0.0658
     37 H           3.9961   -0.0942    0.0000 H       1  UNL1        0.0622
     38 H           3.1861   -1.4972    0.0000 H       1  UNL1        0.0655
     39 H           4.8638    4.0608    0.0000 H       1  UNL1        0.0532
     40 H           5.9011    4.3387    0.0000 H       1  UNL1        0.0532
     41 H          10.5623    1.2130    0.0000 H       1  UNL1        0.0660
     42 H          11.4358    1.1366    0.0000 H       1  UNL1        0.0660
     43 H          11.3594    0.2631    0.0000 H       1  UNL1        0.0660
     44 H           5.8430   -4.4052    0.0000 H       1  UNL1        0.0660
     45 H           4.9961   -4.6322    0.0000 H       1  UNL1        0.0660
     46 H           4.7692   -3.7852    0.0000 H       1  UNL1        0.0660
     47 H           2.8061   -3.8492    0.0000 H       1  UNL1        0.0660
     48 H           2.1861   -3.2292    0.0000 H       1  UNL1        0.0660
     49 H           2.8061   -2.6092    0.0000 H       1  UNL1        0.0660
@<TRIPOS>BOND
     1     8     1    1
     2     1    34    1
     3     2    15    1
     4     2    23    1
     5     3    13    2
     6     4    19    1
     7     4    24    1
     8     5    22    1
     9     5    25    1
    10     6     8    1
    11     6    10    1
    12     6    11    1
    13     6    12    1
    14     7     8    1
    15     7     9    1
    16     7    13    1
    17     7    26    1
    18     8    27    1
    19     9    10    1
    20     9    14    1
    21     9    28    1
    22    10    29    1
    23    10    30    1
    24    11    16    1
    25    11    31    1
    26    11    32    1
    27    12    15    2
    28    12    33    1
    29    13    15    1
    30    14    17   ar
    31    14    18   ar
    32    16    21    2
    33    16    35    1
    34    17    19   ar
    35    17    36    1
    36    18    20   ar
    37    18    37    1
    38    19    22   ar
    39    20    22   ar
    40    20    38    1
    41    21    39    1
    42    21    40    1
    43    23    41    1
    44    23    42    1
    45    23    43    1
    46    24    44    1
    47    24    45    1
    48    24    46    1
    49    25    47    1
    50    25    48    1
    51    25    49    1
