@<TRIPOS>MOLECULE
IMPHY006216
 48 49 0 0 0
SMALL
GASTEIGER

@<TRIPOS>ATOM
      1 O           5.0981    3.6830    0.0000 O.3     1  UNL1       -0.3647
      2 O           2.8660   -4.1830    0.0000 O.3     1  UNL1       -0.4951
      3 C           4.0981    3.6830    0.0000 C.3     1  UNL1        0.0910
      4 C           4.5981    2.8170    0.0000 C.3     1  UNL1        0.0943
      5 C           4.5981    1.8170    0.0000 C.3     1  UNL1        0.0101
      6 C           4.0981    4.6830    0.0000 C.3     1  UNL1       -0.0336
      7 C           3.2320    3.1830    0.0000 C.3     1  UNL1       -0.0336
      8 C           3.7320    1.3170    0.0000 C.3     1  UNL1       -0.0257
      9 C           5.4641    1.3170    0.0000 C.2     1  UNL1       -0.0752
     10 C           3.7320    0.3170    0.0000 C.2     1  UNL1       -0.0828
     11 C           6.3301    1.8170    0.0000 C.2     1  UNL1       -0.0546
     12 C           2.8660   -0.1830    0.0000 C.2     1  UNL1       -0.0585
     13 C           6.3301    2.8170    0.0000 C.3     1  UNL1       -0.0400
     14 C           7.1962    1.3170    0.0000 C.2     1  UNL1       -0.0662
     15 C           2.8660   -1.1830    0.0000 C.ar    1  UNL1       -0.0251
     16 C           8.0622    1.8170    0.0000 C.2     1  UNL1       -0.0985
     17 C           2.0000   -1.6830    0.0000 C.ar    1  UNL1       -0.0511
     18 C           3.7320   -1.6830    0.0000 C.ar    1  UNL1       -0.0511
     19 C           2.0000   -2.6830    0.0000 C.ar    1  UNL1       -0.0194
     20 C           3.7320   -2.6830    0.0000 C.ar    1  UNL1       -0.0194
     21 C           2.8660   -3.1830    0.0000 C.ar    1  UNL1        0.1201
     22 C           2.0000   -4.6830    0.0000 C.3     1  UNL1        0.0788
     23 H           5.4191    2.5970    0.0000 H       1  UNL1        0.0631
     24 H           4.5981    0.9670    0.0000 H       1  UNL1        0.0372
     25 H           4.7181    4.6830    0.0000 H       1  UNL1        0.0258
     26 H           4.0981    5.3030    0.0000 H       1  UNL1        0.0258
     27 H           3.4781    4.6830    0.0000 H       1  UNL1        0.0258
     28 H           2.9220    3.7200    0.0000 H       1  UNL1        0.0258
     29 H           2.6951    2.8730    0.0000 H       1  UNL1        0.0258
     30 H           3.5420    2.6461    0.0000 H       1  UNL1        0.0258
     31 H           3.5200    1.8996    0.0000 H       1  UNL1        0.0314
     32 H           3.1215    1.2093    0.0000 H       1  UNL1        0.0314
     33 H           5.4641    0.6970    0.0000 H       1  UNL1        0.0578
     34 H           4.2690    0.0070    0.0000 H       1  UNL1        0.0572
     35 H           2.3291    0.1270    0.0000 H       1  UNL1        0.0620
     36 H           6.9501    2.8170    0.0000 H       1  UNL1        0.0277
     37 H           6.3301    3.4370    0.0000 H       1  UNL1        0.0277
     38 H           5.7101    2.8170    0.0000 H       1  UNL1        0.0277
     39 H           7.1962    0.6970    0.0000 H       1  UNL1        0.0614
     40 H           8.5991    1.5070    0.0000 H       1  UNL1        0.0535
     41 H           8.0622    2.4370    0.0000 H       1  UNL1        0.0535
     42 H           1.4631   -1.3730    0.0000 H       1  UNL1        0.0625
     43 H           4.2690   -1.3730    0.0000 H       1  UNL1        0.0625
     44 H           1.4631   -2.9930    0.0000 H       1  UNL1        0.0654
     45 H           4.2690   -2.9930    0.0000 H       1  UNL1        0.0654
     46 H           1.6900   -4.1461    0.0000 H       1  UNL1        0.0660
     47 H           1.4631   -4.9930    0.0000 H       1  UNL1        0.0660
     48 H           2.3100   -5.2200    0.0000 H       1  UNL1        0.0660
@<TRIPOS>BOND
     1     1     3    1
     2     1     4    1
     3     2    21    1
     4     2    22    1
     5     3     4    1
     6     3     6    1
     7     3     7    1
     8     4     5    1
     9     4    23    1
    10     5     8    1
    11     5     9    1
    12     5    24    1
    13     6    25    1
    14     6    26    1
    15     6    27    1
    16     7    28    1
    17     7    29    1
    18     7    30    1
    19     8    10    1
    20     8    31    1
    21     8    32    1
    22     9    11    2
    23     9    33    1
    24    10    12    2
    25    10    34    1
    26    11    13    1
    27    11    14    1
    28    12    15    1
    29    12    35    1
    30    13    36    1
    31    13    37    1
    32    13    38    1
    33    14    16    2
    34    14    39    1
    35    15    17   ar
    36    15    18   ar
    37    16    40    1
    38    16    41    1
    39    17    19   ar
    40    17    42    1
    41    18    20   ar
    42    18    43    1
    43    19    21   ar
    44    19    44    1
    45    20    21   ar
    46    20    45    1
    47    22    46    1
    48    22    47    1
    49    22    48    1
