@<TRIPOS>MOLECULE
IMPHY015857
 36 36 0 0 0
SMALL
GASTEIGER

@<TRIPOS>ATOM
      1 O           3.7320    1.2500    0.0000 O.3     1  UNL1       -0.4613
      2 O           5.4641    1.2500    0.0000 O.2     1  UNL1       -0.2512
      3 C           4.5981   -1.2500    0.0000 C.3     1  UNL1       -0.0353
      4 C           2.8660   -0.2500    0.0000 C.3     1  UNL1       -0.0066
      5 C           4.5981   -0.2500    0.0000 C.3     1  UNL1       -0.0123
      6 C           3.7320    0.2500    0.0000 C.3     1  UNL1        0.1059
      7 C           3.7320   -1.7500    0.0000 C.3     1  UNL1       -0.0495
      8 C           2.8660   -1.2500    0.0000 C.3     1  UNL1       -0.0468
      9 C           5.4641   -1.7500    0.0000 C.3     1  UNL1       -0.0438
     10 C           2.0000    0.2500    0.0000 C.3     1  UNL1       -0.0591
     11 C           5.4641   -2.7500    0.0000 C.3     1  UNL1       -0.0624
     12 C           6.3301   -1.2500    0.0000 C.3     1  UNL1       -0.0624
     13 C           4.5981    1.7500    0.0000 C.2     1  UNL1        0.3042
     14 C           4.5981    2.7500    0.0000 C.3     1  UNL1        0.0332
     15 H           4.5981   -1.8700    0.0000 H       1  UNL1        0.0304
     16 H           2.8660    0.3700    0.0000 H       1  UNL1        0.0334
     17 H           5.2087   -0.3577    0.0000 H       1  UNL1        0.0304
     18 H           4.8101    0.3326    0.0000 H       1  UNL1        0.0304
     19 H           4.2690    0.5600    0.0000 H       1  UNL1        0.0736
     20 H           3.3335   -2.2250    0.0000 H       1  UNL1        0.0268
     21 H           4.1306   -2.2250    0.0000 H       1  UNL1        0.0268
     22 H           2.2554   -1.1423    0.0000 H       1  UNL1        0.0269
     23 H           2.6540   -1.8326    0.0000 H       1  UNL1        0.0269
     24 H           5.4641   -1.1300    0.0000 H       1  UNL1        0.0298
     25 H           2.3100    0.7869    0.0000 H       1  UNL1        0.0234
     26 H           1.4631    0.5600    0.0000 H       1  UNL1        0.0234
     27 H           1.6900   -0.2869    0.0000 H       1  UNL1        0.0234
     28 H           4.8441   -2.7500    0.0000 H       1  UNL1        0.0232
     29 H           5.4641   -3.3700    0.0000 H       1  UNL1        0.0232
     30 H           6.0841   -2.7500    0.0000 H       1  UNL1        0.0232
     31 H           6.6401   -1.7869    0.0000 H       1  UNL1        0.0232
     32 H           6.8671   -0.9400    0.0000 H       1  UNL1        0.0232
     33 H           6.0201   -0.7131    0.0000 H       1  UNL1        0.0232
     34 H           5.2181    2.7500    0.0000 H       1  UNL1        0.0342
     35 H           4.5981    3.3700    0.0000 H       1  UNL1        0.0342
     36 H           3.9781    2.7500    0.0000 H       1  UNL1        0.0342
@<TRIPOS>BOND
     1     1     6    1
     2     1    13    1
     3     2    13    2
     4     3     5    1
     5     3     7    1
     6     3     9    1
     7     3    15    1
     8     4     6    1
     9     4     8    1
    10     4    10    1
    11     4    16    1
    12     5     6    1
    13     5    17    1
    14     5    18    1
    15     6    19    1
    16     7     8    1
    17     7    20    1
    18     7    21    1
    19     8    22    1
    20     8    23    1
    21     9    11    1
    22     9    12    1
    23     9    24    1
    24    10    25    1
    25    10    26    1
    26    10    27    1
    27    11    28    1
    28    11    29    1
    29    11    30    1
    30    12    31    1
    31    12    32    1
    32    12    33    1
    33    13    14    1
    34    14    34    1
    35    14    35    1
    36    14    36    1
