@<TRIPOS>MOLECULE
IMPHY009371
 88 91 0 0 0
SMALL
GASTEIGER

@<TRIPOS>ATOM
      1 O           5.6973    0.8376    0.0000 O.3     1  UNL1       -0.4534
      2 O           4.7523    1.2991    0.0000 O.3     1  UNL1       -0.4571
      3 O           5.4795    3.9058    0.0000 O.3     1  UNL1       -0.3869
      4 O           7.4049    6.0105    0.0000 O.3     1  UNL1       -0.3797
      5 O           6.6840   -0.5859    0.0000 O.2     1  UNL1       -0.2508
      6 O           6.5814    6.9938    0.0000 O.2     1  UNL1       -0.2893
      7 O          10.0600    3.9363    0.0000 O.3     1  UNL1       -0.3907
      8 O           3.7821    2.7339    0.0000 O.2     1  UNL1       -0.2512
      9 C           7.3752    2.0007    0.0000 C.3     1  UNL1        0.0209
     10 C           6.5192    1.4073    0.0000 C.3     1  UNL1        0.1598
     11 C           7.4614    0.9621    0.0000 C.3     1  UNL1        0.0161
     12 C           7.2814    3.0381    0.0000 C.3     1  UNL1        0.0145
     13 C           5.5807    1.8592    0.0000 C.3     1  UNL1        0.1485
     14 C           6.3804    3.4719    0.0000 C.3     1  UNL1        0.0880
     15 C           5.5108    2.8985    0.0000 C.3     1  UNL1        0.0272
     16 C           8.4580    1.0446    0.0000 C.3     1  UNL1       -0.0556
     17 C           7.0345    0.0579    0.0000 C.3     1  UNL1       -0.0556
     18 C           6.1579    4.4469    0.0000 C.3     1  UNL1        0.0439
     19 C           8.1824    3.4719    0.0000 C.2     1  UNL1       -0.0763
     20 C           6.7814    5.2287    0.0000 C.3     1  UNL1        0.1403
     21 C           4.5128    2.8353    0.0000 C.3     1  UNL1       -0.0562
     22 C           8.4049    4.4469    0.0000 C.2     1  UNL1       -0.0449
     23 C           7.7814    5.2287    0.0000 C.3     1  UNL1        0.0073
     24 C           5.2281    4.7986    0.0000 C.2     1  UNL1       -0.0687
     25 C           5.7797   -0.1590    0.0000 C.2     1  UNL1        0.3077
     26 C           6.2316    6.0569    0.0000 C.2     1  UNL1        0.1909
     27 C           5.2736    5.7916    0.0000 C.2     1  UNL1       -0.0086
     28 C           3.8530    1.7364    0.0000 C.2     1  UNL1        0.3043
     29 C           9.3798    4.6694    0.0000 C.3     1  UNL1        0.0654
     30 C           4.9578   -0.7287    0.0000 C.3     1  UNL1        0.0450
     31 C           4.4918    6.4151    0.0000 C.3     1  UNL1       -0.0366
     32 C           3.0246    1.1763    0.0000 C.3     1  UNL1        0.0332
     33 C           5.0402   -1.7253    0.0000 C.3     1  UNL1       -0.0430
     34 C           4.2184   -2.2949    0.0000 C.3     1  UNL1       -0.0526
     35 C           4.3008   -3.2915    0.0000 C.3     1  UNL1       -0.0530
     36 C           3.4789   -3.8612    0.0000 C.3     1  UNL1       -0.0531
     37 C           3.5613   -4.8578    0.0000 C.3     1  UNL1       -0.0531
     38 C           2.7395   -5.4275    0.0000 C.3     1  UNL1       -0.0533
     39 C           2.8219   -6.4241    0.0000 C.3     1  UNL1       -0.0559
     40 C           2.0000   -6.9938    0.0000 C.3     1  UNL1       -0.0653
     41 H           8.2221    2.0741    0.0000 H       1  UNL1        0.0354
     42 H           8.0208    2.6188    0.0000 H       1  UNL1        0.0375
     43 H           5.0236    2.1315    0.0000 H       1  UNL1        0.0778
     44 H           5.3140    3.4864    0.0000 H       1  UNL1        0.0363
     45 H           8.5091    0.4267    0.0000 H       1  UNL1        0.0236
     46 H           9.0759    1.0956    0.0000 H       1  UNL1        0.0236
     47 H           6.4738    0.3225    0.0000 H       1  UNL1        0.0236
     48 H           6.7698   -0.5028    0.0000 H       1  UNL1        0.0236
     49 H           7.5951   -0.2068    0.0000 H       1  UNL1        0.0236
     50 H           8.4069    1.6624    0.0000 H       1  UNL1        0.0236
     51 H           6.9866    4.2577    0.0000 H       1  UNL1        0.0404
     52 H           8.6671    3.0854    0.0000 H       1  UNL1        0.0576
     53 H           4.4737    3.4541    0.0000 H       1  UNL1        0.0234
     54 H           3.8941    2.7961    0.0000 H       1  UNL1        0.0234
     55 H           4.5520    2.2165    0.0000 H       1  UNL1        0.0234
     56 H           4.8612    3.8595    0.0000 H       1  UNL1        0.2102
     57 H           8.3400    5.4977    0.0000 H       1  UNL1        0.0343
     58 H           7.6434    5.8332    0.0000 H       1  UNL1        0.0343
     59 H           4.7101    4.4579    0.0000 H       1  UNL1        0.0580
     60 H           8.0180    5.9181    0.0000 H       1  UNL1        0.2108
     61 H           9.9006    5.0058    0.0000 H       1  UNL1        0.0604
     62 H           9.1390    5.2407    0.0000 H       1  UNL1        0.0604
     63 H           4.6985   -0.1655    0.0000 H       1  UNL1        0.0377
     64 H           4.3582   -0.8863    0.0000 H       1  UNL1        0.0377
     65 H           4.8783    6.8998    0.0000 H       1  UNL1        0.0279
     66 H           4.0070    6.8017    0.0000 H       1  UNL1        0.0279
     67 H           4.1052    5.9304    0.0000 H       1  UNL1        0.0279
     68 H           2.6773    1.6899    0.0000 H       1  UNL1        0.0342
     69 H           2.5110    0.8290    0.0000 H       1  UNL1        0.0342
     70 H           3.3719    0.6627    0.0000 H       1  UNL1        0.0342
     71 H           5.2996   -2.2884    0.0000 H       1  UNL1        0.0270
     72 H           5.6399   -1.5676    0.0000 H       1  UNL1        0.0270
     73 H          10.6644    4.0743    0.0000 H       1  UNL1        0.2098
     74 H           3.9590   -1.7318    0.0000 H       1  UNL1        0.0265
     75 H           3.6187   -2.4526    0.0000 H       1  UNL1        0.0265
     76 H           4.5601   -3.8547    0.0000 H       1  UNL1        0.0265
     77 H           4.9004   -3.1339    0.0000 H       1  UNL1        0.0265
     78 H           3.2196   -3.2981    0.0000 H       1  UNL1        0.0265
     79 H           2.8793   -4.0188    0.0000 H       1  UNL1        0.0265
     80 H           3.8207   -5.4210    0.0000 H       1  UNL1        0.0265
     81 H           4.1610   -4.7002    0.0000 H       1  UNL1        0.0265
     82 H           2.4801   -4.8643    0.0000 H       1  UNL1        0.0265
     83 H           2.1398   -5.5851    0.0000 H       1  UNL1        0.0265
     84 H           3.0812   -6.9872    0.0000 H       1  UNL1        0.0263
     85 H           3.4215   -6.2665    0.0000 H       1  UNL1        0.0263
     86 H           1.6468   -6.4842    0.0000 H       1  UNL1        0.0230
     87 H           1.4904   -7.3470    0.0000 H       1  UNL1        0.0230
     88 H           2.3532   -7.5033    0.0000 H       1  UNL1        0.0230
@<TRIPOS>BOND
     1    10     1    1
     2     1    25    1
     3    13     2    1
     4     2    28    1
     5    14     3    1
     6     3    56    1
     7    20     4    1
     8     4    60    1
     9     5    25    2
    10     6    26    2
    11     7    29    1
    12     7    73    1
    13     8    28    2
    14     9    10    1
    15     9    11    1
    16     9    12    1
    17     9    41    1
    18    10    11    1
    19    10    13    1
    20    11    16    1
    21    11    17    1
    22    12    14    1
    23    12    19    1
    24    12    42    1
    25    13    15    1
    26    13    43    1
    27    14    15    1
    28    14    18    1
    29    15    21    1
    30    15    44    1
    31    16    45    1
    32    16    46    1
    33    16    50    1
    34    17    47    1
    35    17    48    1
    36    17    49    1
    37    18    20    1
    38    18    24    1
    39    18    51    1
    40    19    22    2
    41    19    52    1
    42    20    23    1
    43    20    26    1
    44    21    53    1
    45    21    54    1
    46    21    55    1
    47    22    23    1
    48    22    29    1
    49    23    57    1
    50    23    58    1
    51    24    27    2
    52    24    59    1
    53    25    30    1
    54    26    27    1
    55    27    31    1
    56    28    32    1
    57    29    61    1
    58    29    62    1
    59    30    33    1
    60    30    63    1
    61    30    64    1
    62    31    65    1
    63    31    66    1
    64    31    67    1
    65    32    68    1
    66    32    69    1
    67    32    70    1
    68    33    34    1
    69    33    71    1
    70    33    72    1
    71    34    35    1
    72    34    74    1
    73    34    75    1
    74    35    36    1
    75    35    76    1
    76    35    77    1
    77    36    37    1
    78    36    78    1
    79    36    79    1
    80    37    38    1
    81    37    80    1
    82    37    81    1
    83    38    39    1
    84    38    82    1
    85    38    83    1
    86    39    40    1
    87    39    84    1
    88    39    85    1
    89    40    86    1
    90    40    87    1
    91    40    88    1
