@<TRIPOS>MOLECULE
IMPHY010926
 76 79 0 0 0
SMALL
GASTEIGER

@<TRIPOS>ATOM
      1 O           9.3158    1.1187    0.0000 O.3     1  UNL1       -0.4641
      2 O           5.1350   -3.7177    0.0000 O.3     1  UNL1       -0.3313
      3 O           6.8671   -3.7177    0.0000 O.3     1  UNL1       -0.4572
      4 O           5.1350   -6.7177    0.0000 O.3     1  UNL1       -0.3864
      5 O           3.4030   -5.7177    0.0000 O.3     1  UNL1       -0.3865
      6 O           6.8671   -5.7177    0.0000 O.3     1  UNL1       -0.3829
      7 O           8.8546   -0.6026    0.0000 O.2     1  UNL1       -0.2505
      8 O           2.5369   -4.2177    0.0000 O.3     1  UNL1       -0.3924
      9 O           8.5991   -2.7177    0.0000 O.3     1  UNL1       -0.4914
     10 O           6.0240    5.7405    0.0000 O.3     1  UNL1       -0.4913
     11 O           9.4124    5.0203    0.0000 O.3     1  UNL1       -0.4913
     12 O           7.9261    6.3586    0.0000 O.3     1  UNL1       -0.4885
     13 C           7.8376    1.7768    0.0000 C.3     1  UNL1        0.0105
     14 C           7.7331    0.7823    0.0000 C.3     1  UNL1        0.0666
     15 C           8.8158    1.9848    0.0000 C.3     1  UNL1        0.0963
     16 C           6.8671    0.2823    0.0000 C.3     1  UNL1       -0.0143
     17 C           7.0945    2.4460    0.0000 C.3     1  UNL1       -0.0208
     18 C           5.1350   -5.7177    0.0000 C.3     1  UNL1        0.1152
     19 C           4.2690   -5.2177    0.0000 C.3     1  UNL1        0.1120
     20 C           6.0010   -5.2177    0.0000 C.3     1  UNL1        0.1454
     21 C           4.2690   -4.2177    0.0000 C.3     1  UNL1        0.1140
     22 C           8.6466    0.3756    0.0000 C.2     1  UNL1        0.3109
     23 C           6.0010   -4.2177    0.0000 C.3     1  UNL1        0.2310
     24 C           6.8671   -0.7177    0.0000 C.ar    1  UNL1       -0.0429
     25 C           7.3024    3.4241    0.0000 C.ar    1  UNL1       -0.0398
     26 C           3.4030   -3.7177    0.0000 C.3     1  UNL1        0.0731
     27 C           7.7331   -1.2177    0.0000 C.ar    1  UNL1       -0.0131
     28 C           6.8671   -2.7177    0.0000 C.ar    1  UNL1        0.1654
     29 C           6.0010   -1.2177    0.0000 C.ar    1  UNL1       -0.0549
     30 C           7.7331   -2.2177    0.0000 C.ar    1  UNL1        0.1619
     31 C           8.2534    3.7331    0.0000 C.ar    1  UNL1       -0.0129
     32 C           6.5592    4.0932    0.0000 C.ar    1  UNL1       -0.0129
     33 C           6.0010   -2.2177    0.0000 C.ar    1  UNL1       -0.0159
     34 C           6.7672    5.0714    0.0000 C.ar    1  UNL1        0.1654
     35 C           8.4614    4.7113    0.0000 C.ar    1  UNL1        0.1654
     36 C           7.7182    5.3804    0.0000 C.ar    1  UNL1        0.2035
     37 C           9.4651   -2.2177    0.0000 C.3     1  UNL1        0.0790
     38 C           5.0729    5.4315    0.0000 C.3     1  UNL1        0.0790
     39 C           9.6203    5.9984    0.0000 C.3     1  UNL1        0.0790
     40 C           7.1830    7.0277    0.0000 C.3     1  UNL1        0.0791
     41 H           7.2588    1.5546    0.0000 H       1  UNL1        0.0345
     42 H           7.2131    1.1200    0.0000 H       1  UNL1        0.0420
     43 H           9.3822    2.2369    0.0000 H       1  UNL1        0.0700
     44 H           8.6242    2.5744    0.0000 H       1  UNL1        0.0700
     45 H           6.6550    0.8649    0.0000 H       1  UNL1        0.0321
     46 H           6.2565    0.1747    0.0000 H       1  UNL1        0.0321
     47 H           6.5196    2.6782    0.0000 H       1  UNL1        0.0317
     48 H           6.7659    1.9202    0.0000 H       1  UNL1        0.0317
     49 H           5.6720   -6.0277    0.0000 H       1  UNL1        0.0648
     50 H           4.2690   -5.8377    0.0000 H       1  UNL1        0.0647
     51 H           6.5380   -4.9077    0.0000 H       1  UNL1        0.0683
     52 H           4.2690   -3.5977    0.0000 H       1  UNL1        0.0647
     53 H           6.0010   -3.5977    0.0000 H       1  UNL1        0.1084
     54 H           3.8015   -3.2427    0.0000 H       1  UNL1        0.0584
     55 H           3.0044   -3.2427    0.0000 H       1  UNL1        0.0584
     56 H           8.2700   -0.9077    0.0000 H       1  UNL1        0.0658
     57 H           5.4641   -0.9077    0.0000 H       1  UNL1        0.0621
     58 H           4.5981   -7.0277    0.0000 H       1  UNL1        0.2100
     59 H           3.4030   -6.3377    0.0000 H       1  UNL1        0.2100
     60 H           6.8671   -6.3377    0.0000 H       1  UNL1        0.2102
     61 H           8.7142    3.3183    0.0000 H       1  UNL1        0.0658
     62 H           5.9696    3.9016    0.0000 H       1  UNL1        0.0658
     63 H           5.4641   -2.5277    0.0000 H       1  UNL1        0.0655
     64 H           2.0000   -3.9077    0.0000 H       1  UNL1        0.2095
     65 H           9.7751   -2.7546    0.0000 H       1  UNL1        0.0660
     66 H          10.0021   -1.9077    0.0000 H       1  UNL1        0.0660
     67 H           9.1551   -1.6808    0.0000 H       1  UNL1        0.0660
     68 H           4.8814    6.0212    0.0000 H       1  UNL1        0.0660
     69 H           4.4833    5.2399    0.0000 H       1  UNL1        0.0660
     70 H           5.2645    4.8418    0.0000 H       1  UNL1        0.0660
     71 H          10.2268    5.8695    0.0000 H       1  UNL1        0.0660
     72 H           9.7492    6.6049    0.0000 H       1  UNL1        0.0660
     73 H           9.0139    6.1274    0.0000 H       1  UNL1        0.0660
     74 H           7.5978    7.4884    0.0000 H       1  UNL1        0.0660
     75 H           6.7222    7.4426    0.0000 H       1  UNL1        0.0660
     76 H           6.7681    6.5669    0.0000 H       1  UNL1        0.0660
@<TRIPOS>BOND
     1     1    15    1
     2     1    22    1
     3     2    21    1
     4     2    23    1
     5    23     3    1
     6     3    28    1
     7    18     4    1
     8     4    58    1
     9    19     5    1
    10     5    59    1
    11    20     6    1
    12     6    60    1
    13     7    22    2
    14     8    26    1
    15     8    64    1
    16     9    30    1
    17     9    37    1
    18    10    34    1
    19    10    38    1
    20    11    35    1
    21    11    39    1
    22    12    36    1
    23    12    40    1
    24    13    14    1
    25    13    15    1
    26    13    17    1
    27    13    41    1
    28    14    16    1
    29    14    22    1
    30    14    42    1
    31    15    43    1
    32    15    44    1
    33    16    24    1
    34    16    45    1
    35    16    46    1
    36    17    25    1
    37    17    47    1
    38    17    48    1
    39    18    19    1
    40    18    20    1
    41    18    49    1
    42    19    21    1
    43    19    50    1
    44    20    23    1
    45    20    51    1
    46    21    26    1
    47    21    52    1
    48    23    53    1
    49    24    27   ar
    50    24    29   ar
    51    25    31   ar
    52    25    32   ar
    53    26    54    1
    54    26    55    1
    55    27    30   ar
    56    27    56    1
    57    28    30   ar
    58    28    33   ar
    59    29    33   ar
    60    29    57    1
    61    31    35   ar
    62    31    61    1
    63    32    34   ar
    64    32    62    1
    65    33    63    1
    66    34    36   ar
    67    35    36   ar
    68    37    65    1
    69    37    66    1
    70    37    67    1
    71    38    68    1
    72    38    69    1
    73    38    70    1
    74    39    71    1
    75    39    72    1
    76    39    73    1
    77    40    74    1
    78    40    75    1
    79    40    76    1
