@<TRIPOS>MOLECULE
IMPHY013920
 46 48 0 0 0
SMALL
GASTEIGER

@<TRIPOS>ATOM
      1 O           6.3981   -1.8314    0.0000 O.2     1  UNL1       -0.2920
      2 O           8.1821    1.2104    0.0000 O.3     1  UNL1       -0.4771
      3 O           7.3219    2.7137    0.0000 O.2     1  UNL1       -0.2451
      4 C           3.8000   -1.3314    0.0000 C.3     1  UNL1       -0.0195
      5 C           3.8000   -0.3314    0.0000 C.3     1  UNL1       -0.0027
      6 C           2.9061   -1.8661    0.0000 C.3     1  UNL1       -0.0309
      7 C           2.9061    0.2032    0.0000 C.3     1  UNL1       -0.0433
      8 C           2.0000   -1.3522    0.0000 C.3     1  UNL1       -0.0476
      9 C           2.0000   -0.3106    0.0000 C.3     1  UNL1       -0.0518
     10 C           4.6660   -1.8314    0.0000 C.3     1  UNL1        0.0146
     11 C           4.6660    0.1686    0.0000 C.ar    1  UNL1       -0.0304
     12 C           3.8000    0.6686    0.0000 C.3     1  UNL1       -0.0552
     13 C           2.4161   -2.7378    0.0000 C.3     1  UNL1       -0.0595
     14 C           3.4160   -2.7263    0.0000 C.3     1  UNL1       -0.0595
     15 C           5.5321   -0.3314    0.0000 C.ar    1  UNL1        0.0219
     16 C           5.5321   -1.3314    0.0000 C.2     1  UNL1        0.1638
     17 C           4.6500    1.2101    0.0000 C.ar    1  UNL1       -0.0537
     18 C           6.4421    0.1754    0.0000 C.ar    1  UNL1       -0.0367
     19 C           5.5480    1.7378    0.0000 C.ar    1  UNL1       -0.0362
     20 C           6.4501    1.2170    0.0000 C.ar    1  UNL1        0.0624
     21 C           5.5442    2.7378    0.0000 C.3     1  UNL1       -0.0389
     22 C           7.3180    1.7137    0.0000 C.2     1  UNL1        0.3371
     23 H           3.8066   -2.1814    0.0000 H       1  UNL1        0.0319
     24 H           3.3107    0.6730    0.0000 H       1  UNL1        0.0274
     25 H           2.5124    0.6823    0.0000 H       1  UNL1        0.0274
     26 H           1.3891   -1.2461    0.0000 H       1  UNL1        0.0271
     27 H           1.7909   -1.9359    0.0000 H       1  UNL1        0.0271
     28 H           1.7909    0.2731    0.0000 H       1  UNL1        0.0266
     29 H           1.3891   -0.4167    0.0000 H       1  UNL1        0.0266
     30 H           4.2675   -2.3064    0.0000 H       1  UNL1        0.0348
     31 H           5.0646   -2.3064    0.0000 H       1  UNL1        0.0348
     32 H           4.4200    0.6686    0.0000 H       1  UNL1        0.0238
     33 H           3.8000    1.2886    0.0000 H       1  UNL1        0.0238
     34 H           3.1800    0.6686    0.0000 H       1  UNL1        0.0238
     35 H           1.8756   -2.4341    0.0000 H       1  UNL1        0.0235
     36 H           2.1123   -3.2783    0.0000 H       1  UNL1        0.0235
     37 H           2.9566   -3.0416    0.0000 H       1  UNL1        0.0235
     38 H           2.8827   -3.0425    0.0000 H       1  UNL1        0.0235
     39 H           3.7322   -3.2596    0.0000 H       1  UNL1        0.0235
     40 H           3.9494   -2.4101    0.0000 H       1  UNL1        0.0235
     41 H           4.1095    1.5139    0.0000 H       1  UNL1        0.0623
     42 H           6.9754   -0.1408    0.0000 H       1  UNL1        0.0633
     43 H           6.1642    2.7402    0.0000 H       1  UNL1        0.0278
     44 H           5.5418    3.3578    0.0000 H       1  UNL1        0.0278
     45 H           4.9242    2.7354    0.0000 H       1  UNL1        0.0278
     46 H           8.7202    1.5183    0.0000 H       1  UNL1        0.2954
@<TRIPOS>BOND
     1     1    16    2
     2     2    22    1
     3     2    46    1
     4     3    22    2
     5     4     5    1
     6     4     6    1
     7     4    10    1
     8     4    23    1
     9     5     7    1
    10     5    11    1
    11     5    12    1
    12     6     8    1
    13     6    13    1
    14     6    14    1
    15     7     9    1
    16     7    24    1
    17     7    25    1
    18     8     9    1
    19     8    26    1
    20     8    27    1
    21     9    28    1
    22     9    29    1
    23    10    16    1
    24    10    30    1
    25    10    31    1
    26    11    15   ar
    27    11    17   ar
    28    12    32    1
    29    12    33    1
    30    12    34    1
    31    13    35    1
    32    13    36    1
    33    13    37    1
    34    14    38    1
    35    14    39    1
    36    14    40    1
    37    15    16    1
    38    15    18   ar
    39    17    19   ar
    40    17    41    1
    41    18    20   ar
    42    18    42    1
    43    19    20   ar
    44    19    21    1
    45    20    22    1
    46    21    43    1
    47    21    44    1
    48    21    45    1
