@<TRIPOS>MOLECULE
IMPHY000016
 42 44 0 0 0
SMALL
GASTEIGER

@<TRIPOS>ATOM
      1 O           6.3981   -1.9875    0.0000 O.2     1  UNL1       -0.2920
      2 O           5.5442    2.5818    0.0000 O.3     1  UNL1       -0.5033
      3 O           7.3180    1.5576    0.0000 O.3     1  UNL1       -0.5033
      4 C           3.8000   -1.4875    0.0000 C.3     1  UNL1       -0.0195
      5 C           3.8000   -0.4875    0.0000 C.3     1  UNL1       -0.0026
      6 C           2.9061   -2.0221    0.0000 C.3     1  UNL1       -0.0309
      7 C           2.9061    0.0472    0.0000 C.3     1  UNL1       -0.0433
      8 C           2.0000   -1.5083    0.0000 C.3     1  UNL1       -0.0476
      9 C           2.0000   -0.4666    0.0000 C.3     1  UNL1       -0.0518
     10 C           4.6660   -1.9875    0.0000 C.3     1  UNL1        0.0146
     11 C           4.6660    0.0125    0.0000 C.ar    1  UNL1       -0.0270
     12 C           3.8000    0.5125    0.0000 C.3     1  UNL1       -0.0552
     13 C           2.4161   -2.8939    0.0000 C.3     1  UNL1       -0.0595
     14 C           3.4160   -2.8823    0.0000 C.3     1  UNL1       -0.0595
     15 C           5.5321   -0.4875    0.0000 C.ar    1  UNL1        0.0248
     16 C           5.5321   -1.4875    0.0000 C.2     1  UNL1        0.1639
     17 C           4.6500    1.0540    0.0000 C.ar    1  UNL1       -0.0122
     18 C           6.4421    0.0194    0.0000 C.ar    1  UNL1       -0.0058
     19 C           5.5480    1.5818    0.0000 C.ar    1  UNL1        0.1585
     20 C           6.4501    1.0610    0.0000 C.ar    1  UNL1        0.1589
     21 H           3.8066   -2.3374    0.0000 H       1  UNL1        0.0319
     22 H           3.3107    0.5170    0.0000 H       1  UNL1        0.0274
     23 H           2.5124    0.5262    0.0000 H       1  UNL1        0.0274
     24 H           1.3891   -1.4022    0.0000 H       1  UNL1        0.0271
     25 H           1.7909   -2.0920    0.0000 H       1  UNL1        0.0271
     26 H           1.7909    0.1171    0.0000 H       1  UNL1        0.0266
     27 H           1.3891   -0.5727    0.0000 H       1  UNL1        0.0266
     28 H           4.2675   -2.4624    0.0000 H       1  UNL1        0.0348
     29 H           5.0646   -2.4624    0.0000 H       1  UNL1        0.0348
     30 H           4.4200    0.5125    0.0000 H       1  UNL1        0.0238
     31 H           3.8000    1.1325    0.0000 H       1  UNL1        0.0238
     32 H           3.1800    0.5125    0.0000 H       1  UNL1        0.0238
     33 H           1.8756   -2.5901    0.0000 H       1  UNL1        0.0235
     34 H           2.8827   -3.1985    0.0000 H       1  UNL1        0.0235
     35 H           2.1123   -3.4344    0.0000 H       1  UNL1        0.0235
     36 H           2.9566   -3.1976    0.0000 H       1  UNL1        0.0235
     37 H           3.7322   -3.4156    0.0000 H       1  UNL1        0.0235
     38 H           3.9494   -2.5661    0.0000 H       1  UNL1        0.0235
     39 H           4.1095    1.3578    0.0000 H       1  UNL1        0.0658
     40 H           6.9754   -0.2968    0.0000 H       1  UNL1        0.0662
     41 H           6.0799    2.8939    0.0000 H       1  UNL1        0.2923
     42 H           7.8538    1.2456    0.0000 H       1  UNL1        0.2923
@<TRIPOS>BOND
     1     1    16    2
     2     2    19    1
     3     2    41    1
     4     3    20    1
     5     3    42    1
     6     4     5    1
     7     4     6    1
     8     4    10    1
     9     4    21    1
    10     5     7    1
    11     5    11    1
    12     5    12    1
    13     6     8    1
    14     6    13    1
    15     6    14    1
    16     7     9    1
    17     7    22    1
    18     7    23    1
    19     8     9    1
    20     8    24    1
    21     8    25    1
    22     9    26    1
    23     9    27    1
    24    10    16    1
    25    10    28    1
    26    10    29    1
    27    11    15   ar
    28    11    17   ar
    29    12    30    1
    30    12    31    1
    31    12    32    1
    32    13    33    1
    33    13    35    1
    34    13    36    1
    35    14    34    1
    36    14    37    1
    37    14    38    1
    38    15    16    1
    39    15    18   ar
    40    17    19   ar
    41    17    39    1
    42    18    20   ar
    43    18    40    1
    44    19    20   ar
