@<TRIPOS>MOLECULE
IMPHY017271
 34 33 0 0 0
SMALL
GASTEIGER

@<TRIPOS>ATOM
      1 O           8.9282    0.7500    0.0000 O.3     1  UNL1       -0.3775
      2 O           6.3301    0.2500    0.0000 O.3     1  UNL1       -0.3742
      3 O           3.7320    0.7500    0.0000 O.3     1  UNL1       -0.4625
      4 O           2.8660   -0.7500    0.0000 O.2     1  UNL1       -0.2512
      5 C          10.6603    0.7500    0.0000 C.3     1  UNL1       -0.0297
      6 C           9.7942    0.2500    0.0000 C.3     1  UNL1        0.0478
      7 C          11.5263    0.2500    0.0000 C.3     1  UNL1       -0.0538
      8 C           8.0622    0.2500    0.0000 C.3     1  UNL1        0.0710
      9 C           7.1962    0.7500    0.0000 C.3     1  UNL1        0.0711
     10 C          12.3923    0.7500    0.0000 C.3     1  UNL1       -0.0652
     11 C           5.4641    0.7500    0.0000 C.3     1  UNL1        0.0819
     12 C           4.5981    0.2500    0.0000 C.3     1  UNL1        0.1157
     13 C           2.8660    0.2500    0.0000 C.2     1  UNL1        0.3040
     14 C           2.0000    0.7500    0.0000 C.3     1  UNL1        0.0332
     15 H          11.0588    1.2250    0.0000 H       1  UNL1        0.0287
     16 H          10.2617    1.2250    0.0000 H       1  UNL1        0.0287
     17 H           9.3957   -0.2249    0.0000 H       1  UNL1        0.0560
     18 H          10.1928   -0.2249    0.0000 H       1  UNL1        0.0560
     19 H          11.1278   -0.2249    0.0000 H       1  UNL1        0.0263
     20 H          11.9248   -0.2249    0.0000 H       1  UNL1        0.0263
     21 H           7.6636   -0.2249    0.0000 H       1  UNL1        0.0583
     22 H           8.4607   -0.2249    0.0000 H       1  UNL1        0.0583
     23 H           7.5947    1.2250    0.0000 H       1  UNL1        0.0583
     24 H           6.7976    1.2250    0.0000 H       1  UNL1        0.0583
     25 H          12.7023    0.2131    0.0000 H       1  UNL1        0.0230
     26 H          12.9292    1.0600    0.0000 H       1  UNL1        0.0230
     27 H          12.0823    1.2869    0.0000 H       1  UNL1        0.0230
     28 H           5.8626    1.2250    0.0000 H       1  UNL1        0.0594
     29 H           5.0656    1.2250    0.0000 H       1  UNL1        0.0594
     30 H           4.1996   -0.2249    0.0000 H       1  UNL1        0.0721
     31 H           4.9966   -0.2249    0.0000 H       1  UNL1        0.0721
     32 H           2.3100    1.2869    0.0000 H       1  UNL1        0.0342
     33 H           1.4631    1.0600    0.0000 H       1  UNL1        0.0342
     34 H           1.6900    0.2131    0.0000 H       1  UNL1        0.0342
@<TRIPOS>BOND
     1     1     6    1
     2     1     8    1
     3     2     9    1
     4     2    11    1
     5     3    12    1
     6     3    13    1
     7     4    13    2
     8     5     6    1
     9     5     7    1
    10     5    15    1
    11     5    16    1
    12     6    17    1
    13     6    18    1
    14     7    10    1
    15     7    19    1
    16     7    20    1
    17     8     9    1
    18     8    21    1
    19     8    22    1
    20     9    23    1
    21     9    24    1
    22    10    25    1
    23    10    26    1
    24    10    27    1
    25    11    12    1
    26    11    28    1
    27    11    29    1
    28    12    30    1
    29    12    31    1
    30    13    14    1
    31    14    32    1
    32    14    33    1
    33    14    34    1
