@<TRIPOS>MOLECULE
IMPHY001451
 46 50 0 0 0
SMALL
GASTEIGER

@<TRIPOS>ATOM
      1 O           6.6162   -2.7870    0.0000 O.3     1  UNL1       -0.4817
      2 O           3.8361    0.3685    0.0000 O.2     1  UNL1       -0.4539
      3 O           4.7340   -4.2076    0.0000 O.3     1  UNL1       -0.5032
      4 O           2.9759   -1.1352    0.0000 O.3     1  UNL1       -0.5059
      5 O           6.4999    1.8931    0.0000 O.2     1  UNL1       -0.2866
      6 O           5.6186    3.5057    0.0000 O.3     1  UNL1       -0.5058
      7 O           2.0038    3.5197    0.0000 O.3     1  UNL1       -0.4949
      8 C           6.4781   -1.1383    0.0000 C.3     1  UNL1        0.0320
      9 C           7.0961   -1.9167    0.0000 C.3     1  UNL1        0.1124
     10 C           5.6121   -1.6383    0.0000 C.ar    1  UNL1        0.0192
     11 C           6.4781   -0.1383    0.0000 C.3     1  UNL1       -0.0099
     12 C           5.6282   -2.6798    0.0000 C.ar    1  UNL1        0.1669
     13 C           4.7461   -1.1383    0.0000 C.ar    1  UNL1        0.0663
     14 C           5.6121    0.3617    0.0000 C.ar    1  UNL1        0.0437
     15 C           7.9513   -2.4349    0.0000 C.3     1  UNL1       -0.0246
     16 C           7.8532   -1.2634    0.0000 C.3     1  UNL1       -0.0246
     17 C           4.7461   -0.1383    0.0000 C.ar    1  UNL1        0.1463
     18 C           4.7301   -3.2076    0.0000 C.ar    1  UNL1        0.1623
     19 C           3.8361   -1.6452    0.0000 C.ar    1  UNL1        0.1315
     20 C           5.6282    1.4032    0.0000 C.ar    1  UNL1        0.1998
     21 C           3.8280   -2.6868    0.0000 C.ar    1  UNL1        0.0257
     22 C           4.7301    1.9309    0.0000 C.ar    1  UNL1        0.1057
     23 C           3.8280    1.4101    0.0000 C.ar    1  UNL1        0.1463
     24 C           4.7469    3.0158    0.0000 C.ar    1  UNL1        0.1347
     25 C           2.8802    1.9380    0.0000 C.ar    1  UNL1        0.0233
     26 C           3.8114    3.5655    0.0000 C.ar    1  UNL1        0.0225
     27 C           2.8718    3.0230    0.0000 C.ar    1  UNL1        0.1271
     28 C           2.0000    4.5197    0.0000 C.3     1  UNL1        0.0788
     29 H           7.0636   -0.9342    0.0000 H       1  UNL1        0.0392
     30 H           7.0887   -0.2460    0.0000 H       1  UNL1        0.0323
     31 H           6.6902    0.4443    0.0000 H       1  UNL1        0.0323
     32 H           7.6300   -2.9652    0.0000 H       1  UNL1        0.0268
     33 H           8.2582   -1.7329    0.0000 H       1  UNL1        0.0268
     34 H           8.3226   -0.8584    0.0000 H       1  UNL1        0.0268
     35 H           7.4482   -0.7940    0.0000 H       1  UNL1        0.0268
     36 H           8.4816   -2.7562    0.0000 H       1  UNL1        0.0268
     37 H           8.2726   -1.9047    0.0000 H       1  UNL1        0.0268
     38 H           3.2899   -2.9947    0.0000 H       1  UNL1        0.0692
     39 H           4.1982   -4.5197    0.0000 H       1  UNL1        0.2923
     40 H           2.4354   -1.4390    0.0000 H       1  UNL1        0.2922
     41 H           2.3468    1.6219    0.0000 H       1  UNL1        0.0691
     42 H           3.8138    4.1855    0.0000 H       1  UNL1        0.0691
     43 H           5.6258    4.1257    0.0000 H       1  UNL1        0.2922
     44 H           2.6200    4.5220    0.0000 H       1  UNL1        0.0660
     45 H           1.9976    5.1397    0.0000 H       1  UNL1        0.0660
     46 H           1.3800    4.5173    0.0000 H       1  UNL1        0.0660
@<TRIPOS>BOND
     1     1     9    1
     2     1    12    1
     3     2    17   ar
     4     2    23   ar
     5     3    18    1
     6     3    39    1
     7     4    19    1
     8     4    40    1
     9     5    20    2
    10     6    24    1
    11     6    43    1
    12     7    27    1
    13     7    28    1
    14     8     9    1
    15     8    10    1
    16     8    11    1
    17     8    29    1
    18     9    15    1
    19     9    16    1
    20    10    12   ar
    21    10    13   ar
    22    11    14    1
    23    11    30    1
    24    11    31    1
    25    12    18   ar
    26    13    17    1
    27    13    19   ar
    28    14    17   ar
    29    14    20   ar
    30    15    32    1
    31    15    36    1
    32    15    37    1
    33    16    33    1
    34    16    34    1
    35    16    35    1
    36    18    21   ar
    37    19    21   ar
    38    20    22   ar
    39    21    38    1
    40    22    23   ar
    41    22    24   ar
    42    23    25   ar
    43    24    26   ar
    44    25    27   ar
    45    25    41    1
    46    26    27   ar
    47    26    42    1
    48    28    44    1
    49    28    45    1
    50    28    46    1
