@<TRIPOS>MOLECULE
IMPHY006065
 44 47 0 0 0
SMALL
GASTEIGER

@<TRIPOS>ATOM
      1 O           3.9030   -0.7732    0.0000 O.3     1  UNL1       -0.3794
      2 O           2.8698   -0.1587    0.0000 O.3     1  UNL1       -0.4951
      3 N           7.2787    0.3688    0.0000 N.3     1  UNL1       -0.2886
      4 C           6.4091   -0.1332    0.0000 C.3     1  UNL1        0.0713
      5 C           6.6192   -1.1091    0.0000 C.2     1  UNL1       -0.0476
      6 C           5.3894   -0.3364    0.0000 C.3     1  UNL1        0.0002
      7 C           8.0187   -0.3010    0.0000 C.3     1  UNL1        0.0038
      8 C           7.6119   -1.2126    0.0000 C.3     1  UNL1       -0.0168
      9 C           5.5395    0.3688    0.0000 C.ar    1  UNL1       -0.0164
     10 C           7.2787    1.3729    0.0000 C.3     1  UNL1        0.0040
     11 C           4.8699   -1.0285    0.0000 C.3     1  UNL1        0.0640
     12 C           4.9828   -1.9098    0.0000 C.3     1  UNL1       -0.0080
     13 C           6.4091    1.8750    0.0000 C.3     1  UNL1       -0.0145
     14 C           6.1128   -1.7517    0.0000 C.2     1  UNL1       -0.0802
     15 C           5.5395    1.3729    0.0000 C.ar    1  UNL1       -0.0407
     16 C           4.6418   -0.1681    0.0000 C.ar    1  UNL1       -0.0144
     17 C           4.6418    1.9098    0.0000 C.ar    1  UNL1       -0.0548
     18 C           3.7320    0.3479    0.0000 C.ar    1  UNL1        0.1204
     19 C           3.7320    1.3938    0.0000 C.ar    1  UNL1       -0.0197
     20 C           3.1985   -1.4828    0.0000 C.3     1  UNL1        0.0368
     21 C           2.0000    0.3347    0.0000 C.3     1  UNL1        0.0788
     22 H           5.4411    0.2815    0.0000 H       1  UNL1        0.0315
     23 H           4.8100   -0.1158    0.0000 H       1  UNL1        0.0315
     24 H           8.5552   -0.6118    0.0000 H       1  UNL1        0.0430
     25 H           8.3841    0.1998    0.0000 H       1  UNL1        0.0430
     26 H           7.4832   -1.8191    0.0000 H       1  UNL1        0.0323
     27 H           8.2015   -1.4044    0.0000 H       1  UNL1        0.0323
     28 H           7.8892    1.2653    0.0000 H       1  UNL1        0.0430
     29 H           7.4907    1.9555    0.0000 H       1  UNL1        0.0430
     30 H           5.2497   -0.4429    0.0000 H       1  UNL1        0.0599
     31 H           4.3682   -1.9910    0.0000 H       1  UNL1        0.0332
     32 H           5.0664   -2.5242    0.0000 H       1  UNL1        0.0332
     33 H           6.8076    2.3499    0.0000 H       1  UNL1        0.0326
     34 H           6.0106    2.3499    0.0000 H       1  UNL1        0.0326
     35 H           6.4215   -2.2894    0.0000 H       1  UNL1        0.0573
     36 H           4.6490   -0.7881    0.0000 H       1  UNL1        0.0658
     37 H           4.6490    2.5298    0.0000 H       1  UNL1        0.0622
     38 H           3.1963    1.7059    0.0000 H       1  UNL1        0.0654
     39 H           2.7585   -1.0460    0.0000 H       1  UNL1        0.0524
     40 H           2.7616   -1.9228    0.0000 H       1  UNL1        0.0524
     41 H           3.6384   -1.9196    0.0000 H       1  UNL1        0.0524
     42 H           2.3059    0.8740    0.0000 H       1  UNL1        0.0660
     43 H           1.4607    0.6405    0.0000 H       1  UNL1        0.0660
     44 H           1.6941   -0.2046    0.0000 H       1  UNL1        0.0660
@<TRIPOS>BOND
     1    11     1    1
     2     1    20    1
     3     2    18    1
     4     2    21    1
     5     3     4    1
     6     3     7    1
     7     3    10    1
     8     4     5    1
     9     4     6    1
    10     4     9    1
    11     5     8    1
    12     5    14    2
    13     6    11    1
    14     6    22    1
    15     6    23    1
    16     7     8    1
    17     7    24    1
    18     7    25    1
    19     8    26    1
    20     8    27    1
    21     9    15   ar
    22     9    16   ar
    23    10    13    1
    24    10    28    1
    25    10    29    1
    26    11    12    1
    27    11    30    1
    28    12    14    1
    29    12    31    1
    30    12    32    1
    31    13    15    1
    32    13    33    1
    33    13    34    1
    34    14    35    1
    35    15    17   ar
    36    16    18   ar
    37    16    36    1
    38    17    19   ar
    39    17    37    1
    40    18    19   ar
    41    19    38    1
    42    20    39    1
    43    20    40    1
    44    20    41    1
    45    21    42    1
    46    21    43    1
    47    21    44    1
