@<TRIPOS>MOLECULE
IMPHY005244
 80 85 0 0 0
SMALL
GASTEIGER

@<TRIPOS>ATOM
      1 O           5.5318   -3.3698    0.0000 O.3     1  UNL1       -0.3610
      2 O           8.1664   -1.8625    0.0000 O.3     1  UNL1       -0.3876
      3 O           8.8701    1.4428    0.0000 O.3     1  UNL1       -0.3850
      4 O           4.6497   -3.9040    0.0000 O.3     1  UNL1       -0.3862
      5 O           2.8680   -2.8935    0.0000 O.3     1  UNL1       -0.3767
      6 O           4.6497    0.1652    0.0000 O.2     1  UNL1       -0.2966
      7 O          10.5648    0.2545    0.0000 O.3     1  UNL1       -0.3823
      8 O          10.7041    2.6446    0.0000 O.3     1  UNL1       -0.4548
      9 O          11.4235    4.2202    0.0000 O.2     1  UNL1       -0.2453
     10 C           5.5320   -2.3694    0.0000 C.3     1  UNL1        0.1362
     11 C           7.2641   -1.3694    0.0000 C.3     1  UNL1       -0.0053
     12 C           6.3981   -0.8694    0.0000 C.3     1  UNL1       -0.0205
     13 C           5.5320   -1.3694    0.0000 C.3     1  UNL1        0.0633
     14 C           8.1741   -0.8625    0.0000 C.3     1  UNL1        0.0774
     15 C           8.1821    0.1791    0.0000 C.3     1  UNL1        0.0285
     16 C           6.3981   -2.8694    0.0000 C.3     1  UNL1        0.0924
     17 C           7.2641   -2.3694    0.0000 C.3     1  UNL1       -0.0180
     18 C           9.1702    0.4889    0.0000 C.3     1  UNL1        0.1058
     19 C           6.3820    0.1721    0.0000 C.3     1  UNL1       -0.0482
     20 C           7.2800    0.6999    0.0000 C.3     1  UNL1       -0.0420
     21 C           9.1572   -1.1876    0.0000 C.3     1  UNL1       -0.0204
     22 C           4.6381   -2.9040    0.0000 C.3     1  UNL1        0.1139
     23 C           9.7716   -0.3540    0.0000 C.3     1  UNL1       -0.0179
     24 C           4.6381   -0.8347    0.0000 C.2     1  UNL1        0.1449
     25 C           5.5320   -0.3694    0.0000 C.3     1  UNL1       -0.0497
     26 C           7.8474    1.1214    0.0000 C.3     1  UNL1       -0.0542
     27 C           3.7320   -2.3902    0.0000 C.3     1  UNL1        0.0936
     28 C           9.9847    1.0690    0.0000 C.3     1  UNL1        0.1293
     29 C           3.7320   -1.3486    0.0000 C.3     1  UNL1        0.0353
     30 C          10.7992    1.6491    0.0000 C.3     1  UNL1        0.1380
     31 C           9.4046    1.8835    0.0000 C.3     1  UNL1       -0.0298
     32 C          11.7089    1.2338    0.0000 C.3     1  UNL1        0.0089
     33 C           2.0000   -2.3969    0.0000 C.3     1  UNL1        0.0369
     34 C          12.5234    1.8139    0.0000 C.2     1  UNL1       -0.0594
     35 C          11.5186    3.2247    0.0000 C.2     1  UNL1        0.3352
     36 C          12.4283    2.8094    0.0000 C.2     1  UNL1        0.0326
     37 C          13.4331    1.3986    0.0000 C.3     1  UNL1       -0.0429
     38 C          13.2428    3.3895    0.0000 C.3     1  UNL1       -0.0330
     39 H           7.9969   -1.8000    0.0000 H       1  UNL1        0.0332
     40 H           7.1309   -0.4387    0.0000 H       1  UNL1        0.0315
     41 H           6.8232   -3.6054    0.0000 H       1  UNL1        0.0626
     42 H           7.4762   -2.9520    0.0000 H       1  UNL1        0.0295
     43 H           7.8747   -2.2617    0.0000 H       1  UNL1        0.0295
     44 H           6.1640    0.7525    0.0000 H       1  UNL1        0.0269
     45 H           5.7729    0.0566    0.0000 H       1  UNL1        0.0269
     46 H           7.6774    1.1758    0.0000 H       1  UNL1        0.0272
     47 H           6.8791    1.1728    0.0000 H       1  UNL1        0.0272
     48 H           8.9018   -1.7525    0.0000 H       1  UNL1        0.0294
     49 H           9.6922   -1.5009    0.0000 H       1  UNL1        0.0294
     50 H           4.1042   -3.2192    0.0000 H       1  UNL1        0.0649
     51 H          10.2292   -0.7723    0.0000 H       1  UNL1        0.0295
     52 H          10.2356    0.0571    0.0000 H       1  UNL1        0.0295
     53 H           6.1520   -0.3694    0.0000 H       1  UNL1        0.0240
     54 H           5.5320    0.2506    0.0000 H       1  UNL1        0.0240
     55 H           4.9120   -0.3694    0.0000 H       1  UNL1        0.0240
     56 H           8.4316    1.3289    0.0000 H       1  UNL1        0.0237
     57 H           7.6398    1.7056    0.0000 H       1  UNL1        0.0237
     58 H           7.2631    0.9138    0.0000 H       1  UNL1        0.0237
     59 H           3.7356   -3.0102    0.0000 H       1  UNL1        0.0627
     60 H           3.5230   -0.7649    0.0000 H       1  UNL1        0.0368
     61 H           3.1212   -1.4547    0.0000 H       1  UNL1        0.0368
     62 H           8.7009   -2.1766    0.0000 H       1  UNL1        0.2102
     63 H           8.3475    1.7763    0.0000 H       1  UNL1        0.2103
     64 H          10.0260    2.0022    0.0000 H       1  UNL1        0.0767
     65 H           4.1164   -4.2202    0.0000 H       1  UNL1        0.2100
     66 H           9.9096    2.2432    0.0000 H       1  UNL1        0.0259
     67 H           9.0449    2.3885    0.0000 H       1  UNL1        0.0259
     68 H           8.8996    1.5238    0.0000 H       1  UNL1        0.0259
     69 H          11.1820    0.3134    0.0000 H       1  UNL1        0.2104
     70 H          11.3573    0.7231    0.0000 H       1  UNL1        0.0347
     71 H          12.1508    0.7989    0.0000 H       1  UNL1        0.0347
     72 H           2.3079   -1.8588    0.0000 H       1  UNL1        0.0524
     73 H           1.4619   -2.0890    0.0000 H       1  UNL1        0.0524
     74 H           1.6921   -2.9350    0.0000 H       1  UNL1        0.0524
     75 H          13.1756    0.8346    0.0000 H       1  UNL1        0.0275
     76 H          13.9971    1.1410    0.0000 H       1  UNL1        0.0275
     77 H          13.6906    1.9626    0.0000 H       1  UNL1        0.0275
     78 H          13.6025    2.8845    0.0000 H       1  UNL1        0.0280
     79 H          13.7478    3.7492    0.0000 H       1  UNL1        0.0280
     80 H          12.8831    3.8945    0.0000 H       1  UNL1        0.0280
@<TRIPOS>BOND
     1    10     1    1
     2     1    16    1
     3    14     2    1
     4     2    62    1
     5    18     3    1
     6     3    63    1
     7    22     4    1
     8     4    65    1
     9    27     5    1
    10     5    33    1
    11     6    24    2
    12    28     7    1
    13     7    69    1
    14     8    30    1
    15     8    35    1
    16     9    35    2
    17    10    13    1
    18    10    16    1
    19    10    22    1
    20    11    12    1
    21    11    14    1
    22    11    17    1
    23    11    39    1
    24    12    13    1
    25    12    19    1
    26    12    40    1
    27    13    24    1
    28    13    25    1
    29    14    15    1
    30    14    21    1
    31    15    18    1
    32    15    20    1
    33    15    26    1
    34    16    17    1
    35    16    41    1
    36    17    42    1
    37    17    43    1
    38    18    23    1
    39    18    28    1
    40    19    20    1
    41    19    44    1
    42    19    45    1
    43    20    46    1
    44    20    47    1
    45    21    23    1
    46    21    48    1
    47    21    49    1
    48    22    27    1
    49    22    50    1
    50    23    51    1
    51    23    52    1
    52    24    29    1
    53    25    53    1
    54    25    54    1
    55    25    55    1
    56    26    56    1
    57    26    57    1
    58    26    58    1
    59    27    29    1
    60    27    59    1
    61    28    30    1
    62    28    31    1
    63    29    60    1
    64    29    61    1
    65    30    32    1
    66    30    64    1
    67    31    66    1
    68    31    67    1
    69    31    68    1
    70    32    34    1
    71    32    70    1
    72    32    71    1
    73    33    72    1
    74    33    73    1
    75    33    74    1
    76    34    36    2
    77    34    37    1
    78    35    36    1
    79    36    38    1
    80    37    75    1
    81    37    76    1
    82    37    77    1
    83    38    78    1
    84    38    79    1
    85    38    80    1
