@<TRIPOS>MOLECULE
IMPHY008659
 49 51 0 0 0
SMALL
GASTEIGER

@<TRIPOS>ATOM
      1 CA          4.3252   -3.9414    0.0000 Ca      1  UNL1        0.0000
      2 O           7.8105    1.1278    0.0000 O.3     2  UNL2        0.0000
      3 O          10.4141    0.6578    0.0000 O.3     2  UNL2        0.0000
      4 O          10.3910    2.6577    0.0000 O.3     2  UNL2        0.0000
      5 O           8.6475    3.6376    0.0000 O.3     2  UNL2        0.0000
      6 O           6.0670    2.1077    0.0000 O.3     2  UNL2        0.0000
      7 O           6.9338    0.6032    0.0000 O.2     2  UNL2        0.0000
      8 O           8.6822   -3.4314    0.0000 O.co2   2  UNL2       -1.0000
      9 O           6.9338   -3.3968    0.0000 O.2     2  UNL2        0.0000
     10 O           5.1854   -3.4314    0.0000 O.co2   2  UNL2       -1.0000
     11 O           2.5357   -0.8693    0.0000 O.3     2  UNL2        0.0000
     12 O           3.4075    0.6273    0.0000 O.2     2  UNL2        0.0000
     13 C           8.6822    0.6378    0.0000 C.3     2  UNL2        0.0000
     14 C           9.5424    1.1478    0.0000 C.3     2  UNL2        0.0000
     15 C           9.5308    2.1477    0.0000 C.3     2  UNL2        0.0000
     16 C           8.6591    2.6377    0.0000 C.3     2  UNL2        0.0000
     17 C           7.7989    2.1277    0.0000 C.3     2  UNL2        0.0000
     18 C           8.6938   -0.3621    0.0000 C.ar    2  UNL2        0.0000
     19 C           6.9272    2.6176    0.0000 C.3     2  UNL2        0.0000
     20 C           7.7998   -0.8968    0.0000 C.ar    2  UNL2        0.0000
     21 C           9.5998   -0.8760    0.0000 C.ar    2  UNL2        0.0000
     22 C           7.7998   -1.8968    0.0000 C.ar    2  UNL2        0.0000
     23 C           6.9338   -0.3968    0.0000 C.2     2  UNL2        0.0000
     24 C           9.5998   -1.9176    0.0000 C.ar    2  UNL2        0.0000
     25 C           6.0678   -0.8968    0.0000 C.ar    2  UNL2        0.0000
     26 C           8.6938   -2.4315    0.0000 C.ar    2  UNL2        0.0000
     27 C           6.9338   -2.3968    0.0000 C.2     2  UNL2        0.0000
     28 C           6.0678   -1.8968    0.0000 C.ar    2  UNL2        0.0000
     29 C           5.1738   -0.3621    0.0000 C.ar    2  UNL2        0.0000
     30 C           5.1738   -2.4315    0.0000 C.ar    2  UNL2        0.0000
     31 C           4.2678   -0.8760    0.0000 C.ar    2  UNL2        0.0000
     32 C           4.2678   -1.9176    0.0000 C.ar    2  UNL2        0.0000
     33 C           3.4037   -0.3726    0.0000 C.2     2  UNL2        0.0000
     34 H           7.9510    0.2043    0.0000 H       2  UNL2        0.0000
     35 H           9.5496    0.5278    0.0000 H       2  UNL2        0.0000
     36 H           9.5237    2.7677    0.0000 H       2  UNL2        0.0000
     37 H           8.1186    2.9414    0.0000 H       2  UNL2        0.0000
     38 H           7.2656    1.8115    0.0000 H       2  UNL2        0.0000
     39 H           7.3202    3.0972    0.0000 H       2  UNL2        0.0000
     40 H           6.5232    3.0880    0.0000 H       2  UNL2        0.0000
     41 H          10.1356   -0.5639    0.0000 H       2  UNL2        0.0000
     42 H          10.9475    0.9740    0.0000 H       2  UNL2        0.0000
     43 H          10.3839    3.2776    0.0000 H       2  UNL2        0.0000
     44 H           8.1070    3.9414    0.0000 H       2  UNL2        0.0000
     45 H          10.1356   -2.2297    0.0000 H       2  UNL2        0.0000
     46 H           5.5265    2.4114    0.0000 H       2  UNL2        0.0000
     47 H           5.1810    0.2578    0.0000 H       2  UNL2        0.0000
     48 H           3.7320   -2.2297    0.0000 H       2  UNL2        0.0000
     49 H           2.0000   -0.5572    0.0000 H       2  UNL2        0.0000
@<TRIPOS>UNITY_ATOM_ATTR
1 1
charge 2
8 1
charge -1
10 1
charge -1
@<TRIPOS>BOND
     1     2    13    1
     2     2    17    1
     3    14     3    1
     4     3    42    1
     5    15     4    1
     6     4    43    1
     7    16     5    1
     8     5    44    1
     9     6    19    1
    10     6    46    1
    11     7    23    2
    12     8    26    1
    13     9    27    2
    14    10    30    1
    15    11    33    1
    16    11    49    1
    17    12    33    2
    18    13    14    1
    19    13    18    1
    20    13    34    1
    21    14    15    1
    22    14    35    1
    23    15    16    1
    24    15    36    1
    25    16    17    1
    26    16    37    1
    27    17    19    1
    28    17    38    1
    29    18    20   ar
    30    18    21   ar
    31    19    39    1
    32    19    40    1
    33    20    22   ar
    34    20    23    1
    35    21    24   ar
    36    21    41    1
    37    22    26   ar
    38    22    27    1
    39    23    25    1
    40    24    26   ar
    41    24    45    1
    42    25    28   ar
    43    25    29   ar
    44    27    28    1
    45    28    30   ar
    46    29    31   ar
    47    29    47    1
    48    30    32   ar
    49    31    32   ar
    50    31    33    1
    51    32    48    1
