@<TRIPOS>MOLECULE
IMPHY012843
 58 62 0 0 0
SMALL
GASTEIGER

@<TRIPOS>ATOM
      1 O           5.5443   -3.0752    0.0000 O.3     1  UNL1       -0.4829
      2 O           2.0000   -3.2705    0.0000 O.3     1  UNL1       -0.5066
      3 O           8.1226    0.8477    0.0000 O.3     1  UNL1       -0.5066
      4 O           4.8299    1.9239    0.0000 O.3     1  UNL1       -0.5066
      5 O           9.1279   -4.0026    0.0000 O.3     1  UNL1       -0.5033
      6 O          10.1279   -2.2705    0.0000 O.3     1  UNL1       -0.5033
      7 O           4.5981    3.2295    0.0000 O.3     1  UNL1       -0.5033
      8 O           2.8660    4.2295    0.0000 O.3     1  UNL1       -0.5033
      9 C           5.5443   -1.4658    0.0000 C.3     1  UNL1        0.0546
     10 C           6.1279   -2.2705    0.0000 C.3     1  UNL1        0.1361
     11 C           4.5981   -1.7705    0.0000 C.ar    1  UNL1        0.0129
     12 C           4.5981   -2.7705    0.0000 C.ar    1  UNL1        0.1293
     13 C           5.8550   -0.5153    0.0000 C.ar    1  UNL1       -0.0291
     14 C           7.1279   -2.2705    0.0000 C.ar    1  UNL1       -0.0028
     15 C           3.7320   -1.2705    0.0000 C.ar    1  UNL1       -0.0142
     16 C           3.7320   -3.2705    0.0000 C.ar    1  UNL1        0.0219
     17 C           5.1871    0.2290    0.0000 C.ar    1  UNL1       -0.0161
     18 C           6.8335   -0.3090    0.0000 C.ar    1  UNL1       -0.0161
     19 C           2.8660   -1.7705    0.0000 C.ar    1  UNL1       -0.0125
     20 C           7.6279   -3.1365    0.0000 C.ar    1  UNL1       -0.0098
     21 C           2.8660   -2.7705    0.0000 C.ar    1  UNL1        0.1209
     22 C           7.6279   -1.4045    0.0000 C.ar    1  UNL1       -0.0514
     23 C           3.7320   -0.2705    0.0000 C.2     1  UNL1       -0.0535
     24 C           7.1441    0.6415    0.0000 C.ar    1  UNL1        0.1206
     25 C           5.4978    1.1796    0.0000 C.ar    1  UNL1        0.1206
     26 C           8.6279   -3.1365    0.0000 C.ar    1  UNL1        0.1586
     27 C           8.6279   -1.4045    0.0000 C.ar    1  UNL1       -0.0162
     28 C           6.4763    1.3858    0.0000 C.ar    1  UNL1        0.0213
     29 C           9.1279   -2.2705    0.0000 C.ar    1  UNL1        0.1582
     30 C           2.8660    0.2295    0.0000 C.2     1  UNL1       -0.0539
     31 C           2.8660    1.2295    0.0000 C.ar    1  UNL1       -0.0213
     32 C           3.7320    1.7295    0.0000 C.ar    1  UNL1       -0.0094
     33 C           2.0000    1.7295    0.0000 C.ar    1  UNL1       -0.0509
     34 C           3.7320    2.7295    0.0000 C.ar    1  UNL1        0.1588
     35 C           2.0000    2.7295    0.0000 C.ar    1  UNL1       -0.0160
     36 C           2.8660    3.2295    0.0000 C.ar    1  UNL1        0.1582
     37 H           6.1568   -1.3696    0.0000 H       1  UNL1        0.0438
     38 H           6.4096   -1.7182    0.0000 H       1  UNL1        0.0794
     39 H           3.7320   -3.8905    0.0000 H       1  UNL1        0.0691
     40 H           4.5804    0.1012    0.0000 H       1  UNL1        0.0657
     41 H           7.2475   -0.7705    0.0000 H       1  UNL1        0.0657
     42 H           2.3291   -1.4605    0.0000 H       1  UNL1        0.0660
     43 H           7.3179   -3.6735    0.0000 H       1  UNL1        0.0659
     44 H           7.3179   -0.8675    0.0000 H       1  UNL1        0.0623
     45 H           4.2690    0.0395    0.0000 H       1  UNL1        0.0624
     46 H           8.9379   -0.8675    0.0000 H       1  UNL1        0.0655
     47 H           6.6689    1.9751    0.0000 H       1  UNL1        0.0691
     48 H           2.3291   -0.0805    0.0000 H       1  UNL1        0.0624
     49 H           2.0000   -3.8905    0.0000 H       1  UNL1        0.2921
     50 H           8.3152    1.4370    0.0000 H       1  UNL1        0.2921
     51 H           5.0225    2.5132    0.0000 H       1  UNL1        0.2921
     52 H           8.8179   -4.5395    0.0000 H       1  UNL1        0.2923
     53 H          10.4379   -1.7336    0.0000 H       1  UNL1        0.2923
     54 H           4.2690    1.4195    0.0000 H       1  UNL1        0.0661
     55 H           1.4631    1.4195    0.0000 H       1  UNL1        0.0625
     56 H           1.4631    3.0395    0.0000 H       1  UNL1        0.0655
     57 H           4.5981    3.8495    0.0000 H       1  UNL1        0.2923
     58 H           2.3291    4.5395    0.0000 H       1  UNL1        0.2923
@<TRIPOS>BOND
     1     1    10    1
     2     1    12    1
     3     2    21    1
     4     2    49    1
     5     3    24    1
     6     3    50    1
     7     4    25    1
     8     4    51    1
     9     5    26    1
    10     5    52    1
    11     6    29    1
    12     6    53    1
    13     7    34    1
    14     7    57    1
    15     8    36    1
    16     8    58    1
    17     9    10    1
    18     9    11    1
    19     9    13    1
    20     9    37    1
    21    10    14    1
    22    10    38    1
    23    11    12   ar
    24    11    15   ar
    25    12    16   ar
    26    13    17   ar
    27    13    18   ar
    28    14    20   ar
    29    14    22   ar
    30    15    19   ar
    31    15    23    1
    32    16    21   ar
    33    16    39    1
    34    17    25   ar
    35    17    40    1
    36    18    24   ar
    37    18    41    1
    38    19    21   ar
    39    19    42    1
    40    20    26   ar
    41    20    43    1
    42    22    27   ar
    43    22    44    1
    44    23    30    2
    45    23    45    1
    46    24    28   ar
    47    25    28   ar
    48    26    29   ar
    49    27    29   ar
    50    27    46    1
    51    28    47    1
    52    30    31    1
    53    30    48    1
    54    31    32   ar
    55    31    33   ar
    56    32    34   ar
    57    32    54    1
    58    33    35   ar
    59    33    55    1
    60    34    36   ar
    61    35    36   ar
    62    35    56    1
