@<TRIPOS>MOLECULE
IMPHY017876
 38 39 0 0 0
SMALL
GASTEIGER

@<TRIPOS>ATOM
      1 O           2.9664   -0.2728    0.0000 O.3     1  UNL1       -0.3593
      2 C           2.2588    0.4344    0.0000 C.3     1  UNL1        0.1100
      3 C           2.0000   -0.5315    0.0000 C.3     1  UNL1        0.1078
      4 C           3.1248    0.9344    0.0000 C.2     1  UNL1       -0.0454
      5 C           5.7320    0.4685    0.0000 C.3     1  UNL1       -0.0135
      6 C           4.8569    0.9344    0.0000 C.3     1  UNL1       -0.0258
      7 C           2.5000   -1.3975    0.0000 C.2     1  UNL1       -0.0535
      8 C           3.9909    0.4344    0.0000 C.2     1  UNL1       -0.0817
      9 C           3.5000   -1.3975    0.0000 C.2     1  UNL1       -0.0703
     10 C           5.2320   -0.3975    0.0000 C.2     1  UNL1       -0.0817
     11 C           3.1248    1.9344    0.0000 C.3     1  UNL1       -0.0413
     12 C           6.1925    1.3562    0.0000 C.3     1  UNL1       -0.0561
     13 C           6.7320    0.4661    0.0000 C.3     1  UNL1       -0.0561
     14 C           4.3660   -1.8975    0.0000 C.3     1  UNL1       -0.0137
     15 C           5.2320   -1.3975    0.0000 C.2     1  UNL1       -0.0834
     16 C           3.5872   -0.4013    0.0000 C.3     1  UNL1       -0.0434
     17 H           1.7669    0.8119    0.0000 H       1  UNL1        0.0673
     18 H           1.3853   -0.6124    0.0000 H       1  UNL1        0.0670
     19 H           5.2444    1.4184    0.0000 H       1  UNL1        0.0316
     20 H           4.4530    1.4048    0.0000 H       1  UNL1        0.0316
     21 H           2.1900   -1.9344    0.0000 H       1  UNL1        0.0598
     22 H           4.0986   -0.1761    0.0000 H       1  UNL1        0.0573
     23 H           4.7242   -0.0419    0.0000 H       1  UNL1        0.0575
     24 H           3.7448    1.9344    0.0000 H       1  UNL1        0.0275
     25 H           3.1248    2.5544    0.0000 H       1  UNL1        0.0275
     26 H           2.5048    1.9344    0.0000 H       1  UNL1        0.0275
     27 H           6.7428    1.0708    0.0000 H       1  UNL1        0.0238
     28 H           6.4779    1.9066    0.0000 H       1  UNL1        0.0238
     29 H           5.6421    1.6417    0.0000 H       1  UNL1        0.0238
     30 H           6.7305   -0.1539    0.0000 H       1  UNL1        0.0238
     31 H           7.3520    0.4645    0.0000 H       1  UNL1        0.0238
     32 H           6.7336    1.0860    0.0000 H       1  UNL1        0.0238
     33 H           3.9675   -2.3725    0.0000 H       1  UNL1        0.0352
     34 H           4.7646   -2.3725    0.0000 H       1  UNL1        0.0352
     35 H           5.7690   -1.7075    0.0000 H       1  UNL1        0.0572
     36 H           4.2048   -0.4554    0.0000 H       1  UNL1        0.0274
     37 H           3.6412    0.2163    0.0000 H       1  UNL1        0.0274
     38 H           2.9695   -0.3473    0.0000 H       1  UNL1        0.0274
@<TRIPOS>BOND
     1     1     2    1
     2     1     3    1
     3     2     3    1
     4     2     4    1
     5     2    17    1
     6     3     7    1
     7     3    18    1
     8     4     8    2
     9     4    11    1
    10     5     6    1
    11     5    10    1
    12     5    12    1
    13     5    13    1
    14     6     8    1
    15     6    19    1
    16     6    20    1
    17     7     9    2
    18     7    21    1
    19     8    22    1
    20     9    14    1
    21     9    16    1
    22    10    15    2
    23    10    23    1
    24    11    24    1
    25    11    25    1
    26    11    26    1
    27    12    27    1
    28    12    28    1
    29    12    29    1
    30    13    30    1
    31    13    31    1
    32    13    32    1
    33    14    15    1
    34    14    33    1
    35    14    34    1
    36    15    35    1
    37    16    36    1
    38    16    37    1
    39    16    38    1
