@<TRIPOS>MOLECULE
IMPHY006922
 34 34 0 0 0
SMALL
GASTEIGER

@<TRIPOS>ATOM
      1 O           4.5981   -0.0000    0.0000 O.2     1  UNL1       -0.4573
      2 O           6.3301    2.0000    0.0000 O.3     1  UNL1       -0.5009
      3 O           2.8660    2.0000    0.0000 O.3     1  UNL1       -0.4885
      4 O           4.5981    3.0000    0.0000 O.2     1  UNL1       -0.2799
      5 C           6.3301   -1.0000    0.0000 C.3     1  UNL1       -0.0461
      6 C           7.1962   -1.5000    0.0000 C.3     1  UNL1       -0.0529
      7 C           6.3301   -0.0000    0.0000 C.3     1  UNL1        0.0093
      8 C           7.1962   -2.5000    0.0000 C.3     1  UNL1       -0.0559
      9 C           5.4641    0.5000    0.0000 C.ar    1  UNL1        0.1504
     10 C           5.4641    1.5000    0.0000 C.ar    1  UNL1        0.2063
     11 C           8.0622   -3.0000    0.0000 C.3     1  UNL1       -0.0653
     12 C           3.7320    0.5000    0.0000 C.ar    1  UNL1        0.1476
     13 C           4.5981    2.0000    0.0000 C.ar    1  UNL1        0.2679
     14 C           3.7320    1.5000    0.0000 C.ar    1  UNL1        0.2085
     15 C           2.8660    0.0000    0.0000 C.3     1  UNL1       -0.0026
     16 C           2.0000    1.5000    0.0000 C.3     1  UNL1        0.0791
     17 H           5.7196   -0.8923    0.0000 H       1  UNL1        0.0269
     18 H           6.1181   -1.5826    0.0000 H       1  UNL1        0.0269
     19 H           7.8067   -1.6077    0.0000 H       1  UNL1        0.0265
     20 H           7.4082   -0.9174    0.0000 H       1  UNL1        0.0265
     21 H           6.9407   -0.1077    0.0000 H       1  UNL1        0.0345
     22 H           6.5422    0.5826    0.0000 H       1  UNL1        0.0345
     23 H           6.5856   -2.3923    0.0000 H       1  UNL1        0.0263
     24 H           6.9841   -3.0826    0.0000 H       1  UNL1        0.0263
     25 H           7.7522   -3.5369    0.0000 H       1  UNL1        0.0230
     26 H           8.5991   -3.3100    0.0000 H       1  UNL1        0.0230
     27 H           8.3722   -2.4631    0.0000 H       1  UNL1        0.0230
     28 H           2.5560    0.5369    0.0000 H       1  UNL1        0.0309
     29 H           2.3291   -0.3100    0.0000 H       1  UNL1        0.0309
     30 H           3.1760   -0.5369    0.0000 H       1  UNL1        0.0309
     31 H           6.3301    2.6200    0.0000 H       1  UNL1        0.2924
     32 H           1.6900    2.0369    0.0000 H       1  UNL1        0.0660
     33 H           1.4631    1.1900    0.0000 H       1  UNL1        0.0660
     34 H           2.3100    0.9631    0.0000 H       1  UNL1        0.0660
@<TRIPOS>BOND
     1     1     9   ar
     2     1    12   ar
     3     2    10    1
     4     2    31    1
     5     3    14    1
     6     3    16    1
     7     4    13    2
     8     5     6    1
     9     5     7    1
    10     5    17    1
    11     5    18    1
    12     6     8    1
    13     6    19    1
    14     6    20    1
    15     7     9    1
    16     7    21    1
    17     7    22    1
    18     8    11    1
    19     8    23    1
    20     8    24    1
    21     9    10   ar
    22    10    13   ar
    23    11    25    1
    24    11    26    1
    25    11    27    1
    26    12    14   ar
    27    12    15    1
    28    13    14   ar
    29    15    28    1
    30    15    29    1
    31    15    30    1
    32    16    32    1
    33    16    33    1
    34    16    34    1
