@<TRIPOS>MOLECULE
IMPHY003925
 82 86 0 0 0
SMALL
GASTEIGER

@<TRIPOS>ATOM
      1 O           5.6328   -3.2628    0.0000 O.3     1  UNL1       -0.3912
      2 O          10.9848    2.9508    0.0000 O.3     1  UNL1       -0.3912
      3 C           7.3770   -0.1936    0.0000 C.3     1  UNL1       -0.0230
      4 C           6.5109   -0.6936    0.0000 C.3     1  UNL1       -0.0209
      5 C           7.3770    0.8064    0.0000 C.3     1  UNL1       -0.0294
      6 C           5.6449   -0.1936    0.0000 C.3     1  UNL1       -0.0311
      7 C           8.2709    1.3411    0.0000 C.3     1  UNL1       -0.0252
      8 C           4.7349   -0.7004    0.0000 C.3     1  UNL1       -0.0237
      9 C           9.1770    0.8272    0.0000 C.3     1  UNL1       -0.0278
     10 C           8.2709   -0.7283    0.0000 C.3     1  UNL1       -0.0466
     11 C           4.7269   -1.7420    0.0000 C.3     1  UNL1       -0.0022
     12 C           6.5109    1.3064    0.0000 C.3     1  UNL1       -0.0489
     13 C           6.5270   -1.7351    0.0000 C.3     1  UNL1       -0.0201
     14 C           5.6449    0.8064    0.0000 C.3     1  UNL1       -0.0491
     15 C           9.1770   -0.2144    0.0000 C.3     1  UNL1       -0.0486
     16 C           5.6290   -2.2629    0.0000 C.3     1  UNL1        0.0614
     17 C          10.1208    1.3625    0.0000 C.3     1  UNL1       -0.0056
     18 C           8.2458    2.4258    0.0000 C.3     1  UNL1       -0.0447
     19 C           7.7191   -1.1333    0.0000 C.3     1  UNL1       -0.0588
     20 C           7.1537   -1.4596    0.0000 C.3     1  UNL1       -0.0587
     21 C           3.8081   -0.1364    0.0000 C.3     1  UNL1       -0.0193
     22 C           7.4010    1.8344    0.0000 C.3     1  UNL1       -0.0590
     23 C           3.7914   -2.2918    0.0000 C.3     1  UNL1       -0.0413
     24 C          10.1208    2.4474    0.0000 C.3     1  UNL1        0.0606
     25 C           9.1770    2.9827    0.0000 C.3     1  UNL1       -0.0258
     26 C           4.7192   -2.7420    0.0000 C.3     1  UNL1       -0.0569
     27 C           2.8518   -1.7493    0.0000 C.3     1  UNL1       -0.0311
     28 C           2.8602   -0.6643    0.0000 C.2     1  UNL1       -0.0735
     29 C          11.1207    1.3586    0.0000 C.3     1  UNL1       -0.0572
     30 C          10.6174    0.4945    0.0000 C.3     1  UNL1       -0.0572
     31 C           3.8273    0.8635    0.0000 C.3     1  UNL1       -0.0584
     32 C           2.0000   -0.1543    0.0000 C.2     1  UNL1       -0.0992
     33 H           7.9163    0.5006    0.0000 H       1  UNL1        0.0312
     34 H           6.3810    0.2314    0.0000 H       1  UNL1        0.0309
     35 H           4.7513    0.1494    0.0000 H       1  UNL1        0.0315
     36 H           9.9114    0.3994    0.0000 H       1  UNL1        0.0312
     37 H           7.8663   -1.1980    0.0000 H       1  UNL1        0.0271
     38 H           8.6645   -1.2073    0.0000 H       1  UNL1        0.0271
     39 H           6.9095    1.7814    0.0000 H       1  UNL1        0.0268
     40 H           6.1124    1.7814    0.0000 H       1  UNL1        0.0268
     41 H           6.7450   -2.3155    0.0000 H       1  UNL1        0.0296
     42 H           7.1361   -1.6196    0.0000 H       1  UNL1        0.0296
     43 H           5.4329    1.3890    0.0000 H       1  UNL1        0.0268
     44 H           5.0343    0.6987    0.0000 H       1  UNL1        0.0268
     45 H           9.3860   -0.7981    0.0000 H       1  UNL1        0.0268
     46 H           9.7878   -0.1083    0.0000 H       1  UNL1        0.0268
     47 H           6.1677   -2.5698    0.0000 H       1  UNL1        0.0599
     48 H           8.0233    3.0045    0.0000 H       1  UNL1        0.0271
     49 H           7.6376    2.3056    0.0000 H       1  UNL1        0.0271
     50 H           7.1365   -1.3454    0.0000 H       1  UNL1        0.0235
     51 H           7.9312   -1.7158    0.0000 H       1  UNL1        0.0235
     52 H           8.3017   -0.9211    0.0000 H       1  UNL1        0.0235
     53 H           6.6788   -1.8582    0.0000 H       1  UNL1        0.0235
     54 H           7.5522   -1.9346    0.0000 H       1  UNL1        0.0235
     55 H           7.6287   -1.0611    0.0000 H       1  UNL1        0.0235
     56 H           4.3515    0.1622    0.0000 H       1  UNL1        0.0346
     57 H           7.7069    2.3737    0.0000 H       1  UNL1        0.0235
     58 H           6.8617    2.1402    0.0000 H       1  UNL1        0.0235
     59 H           7.0952    1.2951    0.0000 H       1  UNL1        0.0235
     60 H           3.3942   -2.7677    0.0000 H       1  UNL1        0.0274
     61 H           4.1924   -2.7647    0.0000 H       1  UNL1        0.0274
     62 H          10.6583    2.1385    0.0000 H       1  UNL1        0.0599
     63 H           9.5706    3.4617    0.0000 H       1  UNL1        0.0290
     64 H           8.7724    3.4525    0.0000 H       1  UNL1        0.0290
     65 H           4.0992   -2.7372    0.0000 H       1  UNL1        0.0236
     66 H           4.7144   -3.3620    0.0000 H       1  UNL1        0.0236
     67 H           5.3392   -2.7468    0.0000 H       1  UNL1        0.0236
     68 H           2.2418   -1.6385    0.0000 H       1  UNL1        0.0310
     69 H           2.6383   -2.3313    0.0000 H       1  UNL1        0.0310
     70 H          11.1184    0.7386    0.0000 H       1  UNL1        0.0236
     71 H          11.7407    1.3562    0.0000 H       1  UNL1        0.0236
     72 H          10.0793    0.1866    0.0000 H       1  UNL1        0.0236
     73 H          10.9253   -0.0436    0.0000 H       1  UNL1        0.0236
     74 H          11.1555    0.8024    0.0000 H       1  UNL1        0.0236
     75 H          11.1231    1.9786    0.0000 H       1  UNL1        0.0236
     76 H           4.4472    0.8515    0.0000 H       1  UNL1        0.0236
     77 H           3.8393    1.4833    0.0000 H       1  UNL1        0.0236
     78 H           3.2075    0.8754    0.0000 H       1  UNL1        0.0236
     79 H           6.1709   -3.5708    0.0000 H       1  UNL1        0.2098
     80 H          10.9825    3.5708    0.0000 H       1  UNL1        0.2098
     81 H           2.0072    0.4656    0.0000 H       1  UNL1        0.0534
     82 H           1.4595   -0.4581    0.0000 H       1  UNL1        0.0534
@<TRIPOS>BOND
     1    16     1    1
     2     1    79    1
     3    24     2    1
     4     2    80    1
     5     3     4    1
     6     3     5    1
     7     3    10    1
     8     3    19    1
     9     4     6    1
    10     4    13    1
    11     4    20    1
    12     5     7    1
    13     5    12    1
    14     5    33    1
    15     6     8    1
    16     6    14    1
    17     6    34    1
    18     7     9    1
    19     7    18    1
    20     7    22    1
    21     8    11    1
    22     8    21    1
    23     8    35    1
    24     9    15    1
    25     9    17    1
    26     9    36    1
    27    10    15    1
    28    10    37    1
    29    10    38    1
    30    11    16    1
    31    11    23    1
    32    11    26    1
    33    12    14    1
    34    12    39    1
    35    12    40    1
    36    13    16    1
    37    13    41    1
    38    13    42    1
    39    14    43    1
    40    14    44    1
    41    15    45    1
    42    15    46    1
    43    16    47    1
    44    17    24    1
    45    17    29    1
    46    17    30    1
    47    18    25    1
    48    18    48    1
    49    18    49    1
    50    19    50    1
    51    19    51    1
    52    19    52    1
    53    20    53    1
    54    20    54    1
    55    20    55    1
    56    21    28    1
    57    21    31    1
    58    21    56    1
    59    22    57    1
    60    22    58    1
    61    22    59    1
    62    23    27    1
    63    23    60    1
    64    23    61    1
    65    24    25    1
    66    24    62    1
    67    25    63    1
    68    25    64    1
    69    26    65    1
    70    26    66    1
    71    26    67    1
    72    27    28    1
    73    27    68    1
    74    27    69    1
    75    28    32    2
    76    29    70    1
    77    29    71    1
    78    29    75    1
    79    30    72    1
    80    30    73    1
    81    30    74    1
    82    31    76    1
    83    31    77    1
    84    31    78    1
    85    32    81    1
    86    32    82    1
