@<TRIPOS>MOLECULE
IMPHY010392
 48 48 0 0 0
SMALL
GASTEIGER

@<TRIPOS>ATOM
      1 O           4.2690   -0.2500    0.0000 O.3     1  UNL1       -0.3431
      2 O           6.0010   -0.2500    0.0000 O.3     1  UNL1       -0.3403
      3 O           4.2690   -3.2500    0.0000 O.3     1  UNL1       -0.3744
      4 O           6.0010   -2.2500    0.0000 O.3     1  UNL1       -0.3841
      5 O           2.5369   -2.2500    0.0000 O.3     1  UNL1       -0.3866
      6 O           7.7331    0.7500    0.0000 O.3     1  UNL1       -0.3767
      7 O           5.1350    2.2500    0.0000 O.3     1  UNL1       -0.3894
      8 O           7.7331    3.7500    0.0000 O.2     1  UNL1       -0.3009
      9 C           4.2690   -2.2500    0.0000 C.3     1  UNL1        0.1170
     10 C           5.1350   -1.7500    0.0000 C.3     1  UNL1        0.1344
     11 C           3.4030   -1.7500    0.0000 C.3     1  UNL1        0.1097
     12 C           5.1350   -0.7500    0.0000 C.3     1  UNL1        0.1883
     13 C           3.4030   -0.7500    0.0000 C.3     1  UNL1        0.0873
     14 C           6.0010    0.7500    0.0000 C.3     1  UNL1        0.1137
     15 C           6.8671    1.2500    0.0000 C.3     1  UNL1        0.0933
     16 C           2.5369   -0.2500    0.0000 C.3     1  UNL1       -0.0361
     17 C           5.1350    1.2500    0.0000 C.3     1  UNL1        0.0811
     18 C           6.8671    2.2500    0.0000 C.3     1  UNL1        0.0316
     19 C           4.2690    0.7500    0.0000 C.3     1  UNL1       -0.0364
     20 C           3.4030   -3.7500    0.0000 C.3     1  UNL1        0.0370
     21 C           7.7331    2.7500    0.0000 C.2     1  UNL1        0.1228
     22 C           8.5991    1.2500    0.0000 C.3     1  UNL1        0.0369
     23 H           4.8059   -2.5600    0.0000 H       1  UNL1        0.0650
     24 H           5.6720   -1.4400    0.0000 H       1  UNL1        0.0671
     25 H           3.4030   -2.3700    0.0000 H       1  UNL1        0.0646
     26 H           5.1350   -0.1300    0.0000 H       1  UNL1        0.0938
     27 H           3.4030   -0.1300    0.0000 H       1  UNL1        0.0621
     28 H           6.5380    0.4400    0.0000 H       1  UNL1        0.0649
     29 H           7.4040    1.5600    0.0000 H       1  UNL1        0.0627
     30 H           2.8469    0.2869    0.0000 H       1  UNL1        0.0255
     31 H           2.0000    0.0600    0.0000 H       1  UNL1        0.0255
     32 H           2.2269   -0.7869    0.0000 H       1  UNL1        0.0255
     33 H           5.6720    1.5600    0.0000 H       1  UNL1        0.0617
     34 H           6.0010   -2.8700    0.0000 H       1  UNL1        0.2101
     35 H           2.0000   -1.9400    0.0000 H       1  UNL1        0.2100
     36 H           6.6550    2.8326    0.0000 H       1  UNL1        0.0365
     37 H           6.2565    2.1423    0.0000 H       1  UNL1        0.0365
     38 H           3.9590    1.2869    0.0000 H       1  UNL1        0.0255
     39 H           3.7320    0.4400    0.0000 H       1  UNL1        0.0255
     40 H           4.5790    0.2131    0.0000 H       1  UNL1        0.0255
     41 H           3.0930   -3.2131    0.0000 H       1  UNL1        0.0524
     42 H           2.8660   -4.0600    0.0000 H       1  UNL1        0.0524
     43 H           3.7130   -4.2869    0.0000 H       1  UNL1        0.0524
     44 H           4.5981    2.5600    0.0000 H       1  UNL1        0.2099
     45 H           8.2700    2.4400    0.0000 H       1  UNL1        0.1027
     46 H           8.9091    0.7131    0.0000 H       1  UNL1        0.0524
     47 H           9.1360    1.5600    0.0000 H       1  UNL1        0.0524
     48 H           8.2891    1.7869    0.0000 H       1  UNL1        0.0524
@<TRIPOS>BOND
     1     1    12    1
     2     1    13    1
     3    12     2    1
     4    14     2    1
     5     9     3    1
     6     3    20    1
     7    10     4    1
     8     4    34    1
     9    11     5    1
    10     5    35    1
    11    15     6    1
    12     6    22    1
    13    17     7    1
    14     7    44    1
    15     8    21    2
    16     9    10    1
    17     9    11    1
    18     9    23    1
    19    10    12    1
    20    10    24    1
    21    11    13    1
    22    11    25    1
    23    12    26    1
    24    13    16    1
    25    13    27    1
    26    14    15    1
    27    14    17    1
    28    14    28    1
    29    15    18    1
    30    15    29    1
    31    16    30    1
    32    16    31    1
    33    16    32    1
    34    17    19    1
    35    17    33    1
    36    18    21    1
    37    18    36    1
    38    18    37    1
    39    19    38    1
    40    19    39    1
    41    19    40    1
    42    20    41    1
    43    20    42    1
    44    20    43    1
    45    21    45    1
    46    22    46    1
    47    22    47    1
    48    22    48    1
