@<TRIPOS>MOLECULE
IMPHY015952
 49 48 0 0 0
SMALL
GASTEIGER

@<TRIPOS>ATOM
      1 C           8.9282   -2.6900    0.0000 C.3     1  UNL1       -0.0530
      2 C           8.0622   -2.1900    0.0000 C.3     1  UNL1       -0.0528
      3 C           9.7942   -2.1900    0.0000 C.3     1  UNL1       -0.0531
      4 C           7.1962   -2.6900    0.0000 C.3     1  UNL1       -0.0496
      5 C          10.6603   -2.6900    0.0000 C.3     1  UNL1       -0.0533
      6 C           6.3301   -2.1900    0.0000 C.3     1  UNL1       -0.0348
      7 C           3.7320   -0.6900    0.0000 C.3     1  UNL1       -0.0496
      8 C          11.5263   -2.1900    0.0000 C.3     1  UNL1       -0.0559
      9 C           3.7320    0.3100    0.0000 C.3     1  UNL1       -0.0525
     10 C           4.5981   -1.1900    0.0000 C.3     1  UNL1       -0.0348
     11 C           2.8660    0.8100    0.0000 C.3     1  UNL1       -0.0496
     12 C           5.4641   -2.6900    0.0000 C.2     1  UNL1       -0.0879
     13 C           4.5981   -2.1900    0.0000 C.2     1  UNL1       -0.0879
     14 C           2.8660    1.8100    0.0000 C.3     1  UNL1       -0.0350
     15 C          12.3923   -2.6900    0.0000 C.3     1  UNL1       -0.0653
     16 C           2.0000    2.3100    0.0000 C.2     1  UNL1       -0.0911
     17 C           2.0000    3.3100    0.0000 C.2     1  UNL1       -0.1026
     18 H           8.5297   -3.1650    0.0000 H       1  UNL1        0.0265
     19 H           9.3267   -3.1650    0.0000 H       1  UNL1        0.0265
     20 H           8.4607   -1.7150    0.0000 H       1  UNL1        0.0265
     21 H           7.6636   -1.7150    0.0000 H       1  UNL1        0.0265
     22 H          10.1928   -1.7150    0.0000 H       1  UNL1        0.0265
     23 H           9.3957   -1.7150    0.0000 H       1  UNL1        0.0265
     24 H           6.7976   -3.1650    0.0000 H       1  UNL1        0.0268
     25 H           7.5947   -3.1650    0.0000 H       1  UNL1        0.0268
     26 H          10.2617   -3.1650    0.0000 H       1  UNL1        0.0265
     27 H          11.0588   -3.1650    0.0000 H       1  UNL1        0.0265
     28 H           6.7287   -1.7150    0.0000 H       1  UNL1        0.0307
     29 H           5.9316   -1.7150    0.0000 H       1  UNL1        0.0307
     30 H           3.1215   -0.5823    0.0000 H       1  UNL1        0.0268
     31 H           3.5200   -1.2726    0.0000 H       1  UNL1        0.0268
     32 H          11.9248   -1.7150    0.0000 H       1  UNL1        0.0263
     33 H          11.1278   -1.7150    0.0000 H       1  UNL1        0.0263
     34 H           4.3426    0.2023    0.0000 H       1  UNL1        0.0265
     35 H           3.9441    0.8926    0.0000 H       1  UNL1        0.0265
     36 H           5.2087   -1.2977    0.0000 H       1  UNL1        0.0307
     37 H           4.8101   -0.6074    0.0000 H       1  UNL1        0.0307
     38 H           2.2554    0.9177    0.0000 H       1  UNL1        0.0268
     39 H           2.6540    0.2274    0.0000 H       1  UNL1        0.0268
     40 H           5.4641   -3.3100    0.0000 H       1  UNL1        0.0569
     41 H           4.0611   -2.5000    0.0000 H       1  UNL1        0.0569
     42 H           3.4766    1.7023    0.0000 H       1  UNL1        0.0307
     43 H           3.0781    2.3926    0.0000 H       1  UNL1        0.0307
     44 H          12.0823   -3.2269    0.0000 H       1  UNL1        0.0230
     45 H          12.9292   -3.0000    0.0000 H       1  UNL1        0.0230
     46 H          12.7023   -2.1531    0.0000 H       1  UNL1        0.0230
     47 H           1.4631    2.0000    0.0000 H       1  UNL1        0.0566
     48 H           2.5369    3.6200    0.0000 H       1  UNL1        0.0532
     49 H           1.4631    3.6200    0.0000 H       1  UNL1        0.0532
@<TRIPOS>BOND
     1     1     2    1
     2     1     3    1
     3     1    18    1
     4     1    19    1
     5     2     4    1
     6     2    20    1
     7     2    21    1
     8     3     5    1
     9     3    22    1
    10     3    23    1
    11     4     6    1
    12     4    24    1
    13     4    25    1
    14     5     8    1
    15     5    26    1
    16     5    27    1
    17     6    12    1
    18     6    28    1
    19     6    29    1
    20     7     9    1
    21     7    10    1
    22     7    30    1
    23     7    31    1
    24     8    15    1
    25     8    32    1
    26     8    33    1
    27     9    11    1
    28     9    34    1
    29     9    35    1
    30    10    13    1
    31    10    36    1
    32    10    37    1
    33    11    14    1
    34    11    38    1
    35    11    39    1
    36    12    13    2
    37    12    40    1
    38    13    41    1
    39    14    16    1
    40    14    42    1
    41    14    43    1
    42    15    44    1
    43    15    45    1
    44    15    46    1
    45    16    17    2
    46    16    47    1
    47    17    48    1
    48    17    49    1
