@<TRIPOS>MOLECULE
IMPHY000774
 66 69 0 0 0
SMALL
GASTEIGER

@<TRIPOS>ATOM
      1 O           8.1223   -2.0159    0.0000 O.3     1  UNL1       -0.4608
      2 O           5.5103    1.5125    0.0000 O.3     1  UNL1       -0.4585
      3 O           8.6855    1.8935    0.0000 O.3     1  UNL1       -0.3858
      4 O           7.2762    2.5503    0.0000 O.3     1  UNL1       -0.3732
      5 O           4.6497    1.0156    0.0000 O.2     1  UNL1       -0.2882
      6 O           2.8680    0.0052    0.0000 O.2     1  UNL1       -0.4919
      7 O           9.8438   -2.0487    0.0000 O.2     1  UNL1       -0.2508
      8 O           6.3589    3.0224    0.0000 O.2     1  UNL1       -0.2512
      9 C           7.2641   -0.5190    0.0000 C.3     1  UNL1        0.0181
     10 C           6.3981   -0.0190    0.0000 C.3     1  UNL1        0.0206
     11 C           5.5320   -0.5190    0.0000 C.3     1  UNL1        0.0441
     12 C           8.1741   -0.0122    0.0000 C.3     1  UNL1        0.0094
     13 C           7.2641   -1.5190    0.0000 C.3     1  UNL1        0.1095
     14 C           5.5320   -1.5190    0.0000 C.3     1  UNL1       -0.0186
     15 C           6.3820    1.0225    0.0000 C.3     1  UNL1        0.1360
     16 C           8.1821    1.0294    0.0000 C.3     1  UNL1        0.0967
     17 C           6.3981   -2.0190    0.0000 C.3     1  UNL1       -0.0109
     18 C           7.2800    1.5503    0.0000 C.3     1  UNL1        0.1239
     19 C           7.2641    0.4810    0.0000 C.3     1  UNL1       -0.0554
     20 C           9.0134   -0.5404    0.0000 C.3     1  UNL1        0.0511
     21 C           4.6381   -2.0537    0.0000 C.3     1  UNL1       -0.0181
     22 C           5.5320    0.4810    0.0000 C.3     1  UNL1       -0.0517
     23 C           4.6381    0.0157    0.0000 C.2     1  UNL1        0.2035
     24 C           9.1821    1.0256    0.0000 C.3     1  UNL1       -0.0332
     25 C           8.9878   -1.5318    0.0000 C.2     1  UNL1        0.3077
     26 C           3.7320   -1.5398    0.0000 C.2     1  UNL1       -0.0356
     27 C           3.7320   -0.4982    0.0000 C.2     1  UNL1        0.1592
     28 C           4.6497   -3.0536    0.0000 C.3     1  UNL1       -0.0585
     29 C           5.4987    2.5124    0.0000 C.2     1  UNL1        0.3043
     30 C           8.1403    3.0536    0.0000 C.3     1  UNL1        0.0371
     31 C           4.6270    3.0024    0.0000 C.3     1  UNL1        0.0332
     32 C           2.0000   -0.4915    0.0000 C.3     1  UNL1        0.0789
     33 H           5.6587    0.4003    0.0000 H       1  UNL1        0.0354
     34 H           8.9198    0.3959    0.0000 H       1  UNL1        0.0341
     35 H           7.2636   -2.3690    0.0000 H       1  UNL1        0.0739
     36 H           5.5386   -2.3690    0.0000 H       1  UNL1        0.0317
     37 H           5.8493    0.7053    0.0000 H       1  UNL1        0.0764
     38 H           5.9995   -2.4939    0.0000 H       1  UNL1        0.0304
     39 H           6.7966   -2.4939    0.0000 H       1  UNL1        0.0304
     40 H           6.7413    1.8572    0.0000 H       1  UNL1        0.0662
     41 H           7.8841    0.4810    0.0000 H       1  UNL1        0.0236
     42 H           7.2641    1.1010    0.0000 H       1  UNL1        0.0236
     43 H           6.6441    0.4810    0.0000 H       1  UNL1        0.0236
     44 H           9.6205   -0.6663    0.0000 H       1  UNL1        0.0381
     45 H           9.2452    0.0347    0.0000 H       1  UNL1        0.0381
     46 H           4.1042   -2.3688    0.0000 H       1  UNL1        0.0344
     47 H           6.1520    0.4810    0.0000 H       1  UNL1        0.0239
     48 H           5.5320    1.1010    0.0000 H       1  UNL1        0.0239
     49 H           4.9120    0.4810    0.0000 H       1  UNL1        0.0239
     50 H           9.1797    0.4056    0.0000 H       1  UNL1        0.0258
     51 H           9.8021    1.0232    0.0000 H       1  UNL1        0.0258
     52 H           9.1845    1.6456    0.0000 H       1  UNL1        0.0258
     53 H           3.1963   -1.8519    0.0000 H       1  UNL1        0.0612
     54 H           9.3055    1.8912    0.0000 H       1  UNL1        0.2103
     55 H           4.0297   -3.0608    0.0000 H       1  UNL1        0.0235
     56 H           4.6568   -3.6736    0.0000 H       1  UNL1        0.0235
     57 H           5.2696   -3.0464    0.0000 H       1  UNL1        0.0235
     58 H           8.4523    2.5178    0.0000 H       1  UNL1        0.0524
     59 H           8.6760    3.3657    0.0000 H       1  UNL1        0.0524
     60 H           7.8282    3.5893    0.0000 H       1  UNL1        0.0524
     61 H           4.9307    3.5428    0.0000 H       1  UNL1        0.0342
     62 H           4.0865    3.3061    0.0000 H       1  UNL1        0.0342
     63 H           4.3232    2.4619    0.0000 H       1  UNL1        0.0342
     64 H           1.6921    0.0466    0.0000 H       1  UNL1        0.0660
     65 H           1.4619   -0.7994    0.0000 H       1  UNL1        0.0660
     66 H           2.3079   -1.0296    0.0000 H       1  UNL1        0.0660
@<TRIPOS>BOND
     1     1    13    1
     2     1    25    1
     3    15     2    1
     4     2    29    1
     5    16     3    1
     6     3    54    1
     7    18     4    1
     8     4    30    1
     9     5    23    2
    10     6    27    1
    11     6    32    1
    12     7    25    2
    13     8    29    2
    14     9    10    1
    15     9    12    1
    16     9    13    1
    17     9    19    1
    18    10    11    1
    19    10    15    1
    20    10    33    1
    21    11    14    1
    22    11    22    1
    23    11    23    1
    24    12    16    1
    25    12    20    1
    26    12    34    1
    27    13    17    1
    28    13    35    1
    29    14    17    1
    30    14    21    1
    31    14    36    1
    32    15    18    1
    33    15    37    1
    34    16    18    1
    35    16    24    1
    36    17    38    1
    37    17    39    1
    38    18    40    1
    39    19    41    1
    40    19    42    1
    41    19    43    1
    42    20    25    1
    43    20    44    1
    44    20    45    1
    45    21    26    1
    46    21    28    1
    47    21    46    1
    48    22    47    1
    49    22    48    1
    50    22    49    1
    51    23    27    1
    52    24    50    1
    53    24    51    1
    54    24    52    1
    55    26    27    2
    56    26    53    1
    57    28    55    1
    58    28    56    1
    59    28    57    1
    60    29    31    1
    61    30    58    1
    62    30    59    1
    63    30    60    1
    64    31    61    1
    65    31    62    1
    66    31    63    1
    67    32    64    1
    68    32    65    1
    69    32    66    1
