@<TRIPOS>MOLECULE
IMPHY000580
 59 64 0 0 0
SMALL
GASTEIGER

@<TRIPOS>ATOM
      1 O           5.2243   -1.2604    0.0000 O.3     1  UNL1       -0.3313
      2 O           6.9563   -1.2604    0.0000 O.3     1  UNL1       -0.4565
      3 O           5.2243   -4.2604    0.0000 O.3     1  UNL1       -0.3864
      4 O           3.4922   -3.2604    0.0000 O.3     1  UNL1       -0.3865
      5 O           6.9563   -3.2604    0.0000 O.3     1  UNL1       -0.3829
      6 O           6.7471    2.7114    0.0000 O.2     1  UNL1       -0.4501
      7 O           2.6262   -1.7604    0.0000 O.3     1  UNL1       -0.3924
      8 O           5.2243   -0.2604    0.0000 O.3     1  UNL1       -0.4907
      9 O           3.9282    0.8656    0.0000 O.2     1  UNL1       -0.2865
     10 O           5.5816    4.5704    0.0000 O.2     1  UNL1       -0.2833
     11 C           5.2243   -3.2604    0.0000 C.3     1  UNL1        0.1152
     12 C           4.3582   -2.7604    0.0000 C.3     1  UNL1        0.1120
     13 C           6.0903   -2.7604    0.0000 C.3     1  UNL1        0.1454
     14 C           4.3582   -1.7604    0.0000 C.3     1  UNL1        0.1140
     15 C           6.0903   -1.7604    0.0000 C.3     1  UNL1        0.2310
     16 C           3.4922   -1.2604    0.0000 C.3     1  UNL1        0.0731
     17 C           6.9563   -0.2604    0.0000 C.ar    1  UNL1        0.1739
     18 C           6.0903    1.2396    0.0000 C.ar    1  UNL1        0.0776
     19 C           7.8224    0.2396    0.0000 C.ar    1  UNL1        0.0311
     20 C           6.0903    0.2396    0.0000 C.ar    1  UNL1        0.1737
     21 C           6.9563    1.7396    0.0000 C.ar    1  UNL1        0.1480
     22 C           7.8224    1.2396    0.0000 C.ar    1  UNL1        0.0288
     23 C           5.3533    1.9067    0.0000 C.ar    1  UNL1        0.0826
     24 C           5.7584    2.8145    0.0000 C.ar    1  UNL1        0.1871
     25 C           4.3252    1.7835    0.0000 C.2     1  UNL1        0.1983
     26 C           8.7163   -0.2951    0.0000 C.ar    1  UNL1       -0.0503
     27 C           8.7163    1.7743    0.0000 C.ar    1  UNL1       -0.0504
     28 C           5.1635    3.6620    0.0000 C.2     1  UNL1        0.2293
     29 C           3.7108    2.6170    0.0000 C.ar    1  UNL1        0.0333
     30 C           4.1328    3.5626    0.0000 C.ar    1  UNL1        0.0362
     31 C           9.6224    0.2188    0.0000 C.ar    1  UNL1       -0.0610
     32 C           9.6224    1.2604    0.0000 C.ar    1  UNL1       -0.0610
     33 C           2.6399    2.4887    0.0000 C.ar    1  UNL1       -0.0502
     34 C           3.5131    4.4454    0.0000 C.ar    1  UNL1       -0.0501
     35 C           4.3582    0.2396    0.0000 C.3     1  UNL1        0.0790
     36 C           2.0000    3.3569    0.0000 C.ar    1  UNL1       -0.0610
     37 C           2.4396    4.3418    0.0000 C.ar    1  UNL1       -0.0610
     38 H           5.7612   -3.5704    0.0000 H       1  UNL1        0.0648
     39 H           4.3582   -3.3804    0.0000 H       1  UNL1        0.0647
     40 H           6.6272   -2.4504    0.0000 H       1  UNL1        0.0683
     41 H           4.3582   -1.1404    0.0000 H       1  UNL1        0.0647
     42 H           6.0903   -1.1404    0.0000 H       1  UNL1        0.1084
     43 H           3.8908   -0.7855    0.0000 H       1  UNL1        0.0584
     44 H           3.0937   -0.7855    0.0000 H       1  UNL1        0.0584
     45 H           4.6873   -4.5704    0.0000 H       1  UNL1        0.2100
     46 H           3.4922   -3.8804    0.0000 H       1  UNL1        0.2100
     47 H           6.9563   -3.8804    0.0000 H       1  UNL1        0.2102
     48 H           8.7091   -0.9150    0.0000 H       1  UNL1        0.0625
     49 H           8.7091    2.3942    0.0000 H       1  UNL1        0.0625
     50 H           2.0893   -1.4504    0.0000 H       1  UNL1        0.2095
     51 H          10.1581   -0.0933    0.0000 H       1  UNL1        0.0618
     52 H          10.1581    1.5725    0.0000 H       1  UNL1        0.0618
     53 H           2.3938    1.9196    0.0000 H       1  UNL1        0.0625
     54 H           3.7723    5.0086    0.0000 H       1  UNL1        0.0625
     55 H           4.6682    0.7765    0.0000 H       1  UNL1        0.0660
     56 H           3.8213    0.5496    0.0000 H       1  UNL1        0.0660
     57 H           4.0482   -0.2973    0.0000 H       1  UNL1        0.0660
     58 H           1.3836    3.2902    0.0000 H       1  UNL1        0.0618
     59 H           2.0775    4.8451    0.0000 H       1  UNL1        0.0618
@<TRIPOS>BOND
     1     1    14    1
     2     1    15    1
     3    15     2    1
     4     2    17    1
     5    11     3    1
     6     3    45    1
     7    12     4    1
     8     4    46    1
     9    13     5    1
    10     5    47    1
    11     6    21   ar
    12     6    24   ar
    13     7    16    1
    14     7    50    1
    15     8    20    1
    16     8    35    1
    17     9    25    2
    18    10    28    2
    19    11    12    1
    20    11    13    1
    21    11    38    1
    22    12    14    1
    23    12    39    1
    24    13    15    1
    25    13    40    1
    26    14    16    1
    27    14    41    1
    28    15    42    1
    29    16    43    1
    30    16    44    1
    31    17    19   ar
    32    17    20   ar
    33    18    20   ar
    34    18    21   ar
    35    18    23   ar
    36    19    22   ar
    37    19    26   ar
    38    21    22   ar
    39    22    27   ar
    40    23    24   ar
    41    23    25    1
    42    24    28    1
    43    25    29    1
    44    26    31   ar
    45    26    48    1
    46    27    32   ar
    47    27    49    1
    48    28    30    1
    49    29    30   ar
    50    29    33   ar
    51    30    34   ar
    52    31    32   ar
    53    31    51    1
    54    32    52    1
    55    33    36   ar
    56    33    53    1
    57    34    37   ar
    58    34    54    1
    59    35    55    1
    60    35    56    1
    61    35    57    1
    62    36    37   ar
    63    36    58    1
    64    37    59    1
