@<TRIPOS>MOLECULE
IMPHY003948
 31 32 0 0 0
SMALL
GASTEIGER

@<TRIPOS>ATOM
      1 O           2.0000    1.4573    0.0000 O.3     1  UNL1       -0.3947
      2 N           3.7320   -1.5427    0.0000 N.3     1  UNL1       -0.2990
      3 C           3.7320   -0.5427    0.0000 C.3     1  UNL1        0.0153
      4 C           2.8660   -0.0427    0.0000 C.3     1  UNL1       -0.0022
      5 C           4.6260   -0.0080    0.0000 C.3     1  UNL1       -0.0370
      6 C           2.0000   -0.5427    0.0000 C.3     1  UNL1       -0.0455
      7 C           2.8660   -2.0427    0.0000 C.3     1  UNL1       -0.0008
      8 C           4.6260   -2.0773    0.0000 C.3     1  UNL1       -0.0008
      9 C           2.0000   -1.5427    0.0000 C.3     1  UNL1       -0.0398
     10 C           5.5321   -0.5219    0.0000 C.3     1  UNL1       -0.0505
     11 C           5.5321   -1.5635    0.0000 C.3     1  UNL1       -0.0401
     12 C           2.8660    0.9573    0.0000 C.3     1  UNL1        0.0484
     13 H           3.7255    0.3073    0.0000 H       1  UNL1        0.0466
     14 H           2.3291    0.2673    0.0000 H       1  UNL1        0.0338
     15 H           5.0196    0.4710    0.0000 H       1  UNL1        0.0280
     16 H           4.2214    0.4618    0.0000 H       1  UNL1        0.0280
     17 H           1.7880    0.0399    0.0000 H       1  UNL1        0.0270
     18 H           1.3894   -0.6503    0.0000 H       1  UNL1        0.0270
     19 H           2.4675   -2.5176    0.0000 H       1  UNL1        0.0427
     20 H           3.2646   -2.5176    0.0000 H       1  UNL1        0.0427
     21 H           4.2214   -2.5471    0.0000 H       1  UNL1        0.0427
     22 H           5.0196   -2.5564    0.0000 H       1  UNL1        0.0427
     23 H           1.3894   -1.4350    0.0000 H       1  UNL1        0.0278
     24 H           1.7880   -2.1253    0.0000 H       1  UNL1        0.0278
     25 H           6.1429   -0.6279    0.0000 H       1  UNL1        0.0266
     26 H           5.7411    0.0618    0.0000 H       1  UNL1        0.0266
     27 H           5.7411   -2.1472    0.0000 H       1  UNL1        0.0278
     28 H           6.1429   -1.4574    0.0000 H       1  UNL1        0.0278
     29 H           3.4766    0.8497    0.0000 H       1  UNL1        0.0560
     30 H           3.0781    1.5399    0.0000 H       1  UNL1        0.0560
     31 H           2.0000    2.0773    0.0000 H       1  UNL1        0.2094
@<TRIPOS>BOND
     1     1    12    1
     2     1    31    1
     3     2     3    1
     4     2     7    1
     5     2     8    1
     6     3     4    1
     7     3     5    1
     8     3    13    1
     9     4     6    1
    10     4    12    1
    11     4    14    1
    12     5    10    1
    13     5    15    1
    14     5    16    1
    15     6     9    1
    16     6    17    1
    17     6    18    1
    18     7     9    1
    19     7    19    1
    20     7    20    1
    21     8    11    1
    22     8    21    1
    23     8    22    1
    24     9    23    1
    25     9    24    1
    26    10    11    1
    27    10    25    1
    28    10    26    1
    29    11    27    1
    30    11    28    1
    31    12    29    1
    32    12    30    1
