@<TRIPOS>MOLECULE
IMPHY011001
 32 31 0 0 0
SMALL
GASTEIGER

@<TRIPOS>ATOM
      1 O           7.1962    0.0000    0.0000 O.3     1  UNL1       -0.4604
      2 O           8.0622    1.5000    0.0000 O.2     1  UNL1       -0.2512
      3 C           3.7320    0.0000    0.0000 C.3     1  UNL1        0.0158
      4 C           4.5981    0.5000    0.0000 C.2     1  UNL1       -0.0711
      5 C           5.4641    0.0000    0.0000 C.2     1  UNL1       -0.0388
      6 C           2.8660    0.5000    0.0000 C.2     1  UNL1       -0.0691
      7 C           6.3301    0.5000    0.0000 C.3     1  UNL1        0.1134
      8 C           3.7320   -1.0000    0.0000 C.2     1  UNL1       -0.0803
      9 C           5.4641   -1.0000    0.0000 C.3     1  UNL1       -0.0406
     10 C           2.0000    0.0000    0.0000 C.3     1  UNL1       -0.0432
     11 C           2.8660    1.5000    0.0000 C.2     1  UNL1       -0.0989
     12 C           2.8660   -1.5000    0.0000 C.2     1  UNL1       -0.1018
     13 C           8.0622    0.5000    0.0000 C.2     1  UNL1        0.3042
     14 C           8.9282    0.0000    0.0000 C.3     1  UNL1        0.0332
     15 H           4.2690   -0.3100    0.0000 H       1  UNL1        0.0431
     16 H           4.5981    1.1200    0.0000 H       1  UNL1        0.0582
     17 H           6.7287    0.9749    0.0000 H       1  UNL1        0.0745
     18 H           5.9316    0.9749    0.0000 H       1  UNL1        0.0745
     19 H           4.2690   -1.3100    0.0000 H       1  UNL1        0.0575
     20 H           4.8441   -1.0000    0.0000 H       1  UNL1        0.0275
     21 H           5.4641   -1.6200    0.0000 H       1  UNL1        0.0275
     22 H           6.0841   -1.0000    0.0000 H       1  UNL1        0.0275
     23 H           1.6900    0.5369    0.0000 H       1  UNL1        0.0275
     24 H           1.4631   -0.3100    0.0000 H       1  UNL1        0.0275
     25 H           2.3100   -0.5369    0.0000 H       1  UNL1        0.0275
     26 H           3.4030    1.8100    0.0000 H       1  UNL1        0.0535
     27 H           2.3291    1.8100    0.0000 H       1  UNL1        0.0535
     28 H           2.3291   -1.1900    0.0000 H       1  UNL1        0.0532
     29 H           2.8660   -2.1200    0.0000 H       1  UNL1        0.0532
     30 H           8.6182   -0.5369    0.0000 H       1  UNL1        0.0342
     31 H           9.4651   -0.3100    0.0000 H       1  UNL1        0.0342
     32 H           9.2382    0.5369    0.0000 H       1  UNL1        0.0342
@<TRIPOS>BOND
     1     1     7    1
     2     1    13    1
     3     2    13    2
     4     3     4    1
     5     3     6    1
     6     3     8    1
     7     3    15    1
     8     4     5    2
     9     4    16    1
    10     5     7    1
    11     5     9    1
    12     6    10    1
    13     6    11    2
    14     7    17    1
    15     7    18    1
    16     8    12    2
    17     8    19    1
    18     9    20    1
    19     9    21    1
    20     9    22    1
    21    10    23    1
    22    10    24    1
    23    10    25    1
    24    11    26    1
    25    11    27    1
    26    12    28    1
    27    12    29    1
    28    13    14    1
    29    14    30    1
    30    14    31    1
    31    14    32    1
