@<TRIPOS>MOLECULE
IMPHY000780
 49 52 0 0 0
SMALL
GASTEIGER

@<TRIPOS>ATOM
      1 O           6.0682   -2.0950    0.0000 O.3     1  UNL1       -0.4800
      2 O           7.8003   -0.0950    0.0000 O.3     1  UNL1       -0.4534
      3 O           4.3198    0.9396    0.0000 O.3     1  UNL1       -0.5063
      4 O           2.5381   -2.1192    0.0000 O.3     1  UNL1       -0.5065
      5 O           6.9343    1.4050    0.0000 O.2     1  UNL1       -0.2449
      6 O          10.3984   -3.5950    0.0000 O.3     1  UNL1       -0.5068
      7 O           9.5323    3.9050    0.0000 O.3     1  UNL1       -0.5032
      8 O          11.2644    0.9050    0.0000 O.3     1  UNL1       -0.5032
      9 O          11.2644    2.9050    0.0000 O.3     1  UNL1       -0.5009
     10 C           6.9343   -0.5950    0.0000 C.3     1  UNL1        0.1483
     11 C           6.9343   -1.5950    0.0000 C.3     1  UNL1        0.1621
     12 C           6.0682   -0.0950    0.0000 C.3     1  UNL1        0.0204
     13 C           5.2022   -0.5950    0.0000 C.ar    1  UNL1        0.0395
     14 C           5.2022   -1.5950    0.0000 C.ar    1  UNL1        0.1318
     15 C           7.8003   -2.0950    0.0000 C.ar    1  UNL1       -0.0035
     16 C           4.3083   -0.0603    0.0000 C.ar    1  UNL1        0.1271
     17 C           4.3083   -2.1297    0.0000 C.ar    1  UNL1        0.0221
     18 C           7.8003   -3.0950    0.0000 C.ar    1  UNL1       -0.0515
     19 C           8.6663   -1.5950    0.0000 C.ar    1  UNL1       -0.0515
     20 C           3.4022   -0.5742    0.0000 C.ar    1  UNL1        0.0218
     21 C           3.4022   -1.6158    0.0000 C.ar    1  UNL1        0.1238
     22 C           7.8003    0.9050    0.0000 C.2     1  UNL1        0.3398
     23 C           8.6663   -3.5950    0.0000 C.ar    1  UNL1       -0.0198
     24 C           9.5323   -2.0950    0.0000 C.ar    1  UNL1       -0.0198
     25 C           9.5323   -3.0950    0.0000 C.ar    1  UNL1        0.1169
     26 C           8.6663    1.4050    0.0000 C.ar    1  UNL1        0.0661
     27 C           9.5323    0.9050    0.0000 C.ar    1  UNL1       -0.0023
     28 C           8.6663    2.4050    0.0000 C.ar    1  UNL1       -0.0023
     29 C           9.5323    2.9050    0.0000 C.ar    1  UNL1        0.1628
     30 C          10.3984    1.4050    0.0000 C.ar    1  UNL1        0.1628
     31 C          10.3984    2.4050    0.0000 C.ar    1  UNL1        0.2006
     32 H           6.9343    0.0250    0.0000 H       1  UNL1        0.0778
     33 H           6.9343   -2.2150    0.0000 H       1  UNL1        0.0822
     34 H           6.4668    0.3799    0.0000 H       1  UNL1        0.0353
     35 H           5.6697    0.3799    0.0000 H       1  UNL1        0.0353
     36 H           4.3154   -2.7496    0.0000 H       1  UNL1        0.0691
     37 H           7.2634   -3.4050    0.0000 H       1  UNL1        0.0623
     38 H           8.6663   -0.9750    0.0000 H       1  UNL1        0.0623
     39 H           2.8665   -0.2621    0.0000 H       1  UNL1        0.0691
     40 H           8.6663   -4.2150    0.0000 H       1  UNL1        0.0654
     41 H          10.0693   -1.7850    0.0000 H       1  UNL1        0.0654
     42 H           3.7865    1.2558    0.0000 H       1  UNL1        0.2921
     43 H           9.5323    0.2850    0.0000 H       1  UNL1        0.0663
     44 H           8.1294    2.7150    0.0000 H       1  UNL1        0.0663
     45 H           2.0000   -1.8112    0.0000 H       1  UNL1        0.2921
     46 H          10.3984   -4.2150    0.0000 H       1  UNL1        0.2921
     47 H           8.9954    4.2150    0.0000 H       1  UNL1        0.2923
     48 H          11.8013    1.2150    0.0000 H       1  UNL1        0.2923
     49 H          11.2644    3.5250    0.0000 H       1  UNL1        0.2924
@<TRIPOS>BOND
     1     1    11    1
     2     1    14    1
     3    10     2    1
     4     2    22    1
     5     3    16    1
     6     3    42    1
     7     4    21    1
     8     4    45    1
     9     5    22    2
    10     6    25    1
    11     6    46    1
    12     7    29    1
    13     7    47    1
    14     8    30    1
    15     8    48    1
    16     9    31    1
    17     9    49    1
    18    10    11    1
    19    10    12    1
    20    10    32    1
    21    11    15    1
    22    11    33    1
    23    12    13    1
    24    12    34    1
    25    12    35    1
    26    13    14   ar
    27    13    16   ar
    28    14    17   ar
    29    15    18   ar
    30    15    19   ar
    31    16    20   ar
    32    17    21   ar
    33    17    36    1
    34    18    23   ar
    35    18    37    1
    36    19    24   ar
    37    19    38    1
    38    20    21   ar
    39    20    39    1
    40    22    26    1
    41    23    25   ar
    42    23    40    1
    43    24    25   ar
    44    24    41    1
    45    26    27   ar
    46    26    28   ar
    47    27    30   ar
    48    27    43    1
    49    28    29   ar
    50    28    44    1
    51    29    31   ar
    52    30    31   ar
