@<TRIPOS>MOLECULE
IMPHY003831
 84 86 0 0 0
SMALL
GASTEIGER

@<TRIPOS>ATOM
      1 O           8.0719   -3.5000    0.0000 O.3     1  UNL1       -0.4598
      2 O           2.8757    3.5000    0.0000 O.3     1  UNL1       -0.4598
      3 O           7.2058   -5.0000    0.0000 O.2     1  UNL1       -0.2508
      4 O           3.7417    5.0000    0.0000 O.2     1  UNL1       -0.2508
      5 N           7.2058   -1.0000    0.0000 N.3     1  UNL1       -0.3074
      6 N           3.7417    1.0000    0.0000 N.3     1  UNL1       -0.3074
      7 C           8.0719   -0.5000    0.0000 C.3     1  UNL1        0.0081
      8 C           2.8757    0.5000    0.0000 C.3     1  UNL1        0.0081
      9 C           7.2058   -2.0000    0.0000 C.3     1  UNL1        0.0422
     10 C           3.7417    2.0000    0.0000 C.3     1  UNL1        0.0422
     11 C           8.0719   -2.5000    0.0000 C.3     1  UNL1        0.1181
     12 C           2.8757    2.5000    0.0000 C.3     1  UNL1        0.1181
     13 C           8.9379   -1.0000    0.0000 C.3     1  UNL1       -0.0341
     14 C           2.0000    0.9966    0.0000 C.3     1  UNL1       -0.0341
     15 C           8.9379   -2.0000    0.0000 C.3     1  UNL1       -0.0128
     16 C           2.0000    2.0034    0.0000 C.3     1  UNL1       -0.0128
     17 C           8.0719    0.5000    0.0000 C.3     1  UNL1       -0.0375
     18 C           2.8757   -0.5000    0.0000 C.3     1  UNL1       -0.0375
     19 C           7.2058    1.0000    0.0000 C.3     1  UNL1       -0.0516
     20 C           3.7417   -1.0000    0.0000 C.3     1  UNL1       -0.0516
     21 C           6.3398   -2.5000    0.0000 C.3     1  UNL1       -0.0462
     22 C           4.6078    2.5000    0.0000 C.3     1  UNL1       -0.0462
     23 C           7.2058    2.0000    0.0000 C.3     1  UNL1       -0.0530
     24 C           3.7417   -2.0000    0.0000 C.3     1  UNL1       -0.0530
     25 C           6.3398    2.5000    0.0000 C.3     1  UNL1       -0.0530
     26 C           4.6078   -2.5000    0.0000 C.3     1  UNL1       -0.0530
     27 C           6.3398    3.5000    0.0000 C.3     1  UNL1       -0.0526
     28 C           4.6078   -3.5000    0.0000 C.3     1  UNL1       -0.0526
     29 C           5.4738    4.0000    0.0000 C.3     1  UNL1       -0.0430
     30 C           5.4738   -4.0000    0.0000 C.3     1  UNL1       -0.0430
     31 C           7.2058   -4.0000    0.0000 C.2     1  UNL1        0.3074
     32 C           3.7417    4.0000    0.0000 C.2     1  UNL1        0.3074
     33 C           6.3398   -3.5000    0.0000 C.3     1  UNL1        0.0449
     34 C           4.6078    3.5000    0.0000 C.3     1  UNL1        0.0449
     35 H           8.8080   -0.0750    0.0000 H       1  UNL1        0.0460
     36 H           2.1396    0.0750    0.0000 H       1  UNL1        0.0460
     37 H           6.6689   -1.6900    0.0000 H       1  UNL1        0.0494
     38 H           4.2787    1.6900    0.0000 H       1  UNL1        0.0494
     39 H           8.8080   -2.9250    0.0000 H       1  UNL1        0.0749
     40 H           2.1412    2.9278    0.0000 H       1  UNL1        0.0749
     41 H           9.5485   -1.1077    0.0000 H       1  UNL1        0.0281
     42 H           9.1499   -0.4174    0.0000 H       1  UNL1        0.0281
     43 H           1.3891    1.1027    0.0000 H       1  UNL1        0.0281
     44 H           1.7909    0.4129    0.0000 H       1  UNL1        0.0281
     45 H           9.1499   -2.5826    0.0000 H       1  UNL1        0.0302
     46 H           9.5485   -1.8923    0.0000 H       1  UNL1        0.0302
     47 H           1.7909    2.5871    0.0000 H       1  UNL1        0.0302
     48 H           1.3891    1.8973    0.0000 H       1  UNL1        0.0302
     49 H           6.6689   -0.6900    0.0000 H       1  UNL1        0.1226
     50 H           4.2787    0.6900    0.0000 H       1  UNL1        0.1226
     51 H           8.6824    0.3923    0.0000 H       1  UNL1        0.0280
     52 H           8.2839    1.0826    0.0000 H       1  UNL1        0.0280
     53 H           2.2651   -0.3923    0.0000 H       1  UNL1        0.0280
     54 H           2.6637   -1.0826    0.0000 H       1  UNL1        0.0280
     55 H           6.5953    1.1077    0.0000 H       1  UNL1        0.0266
     56 H           6.9938    0.4174    0.0000 H       1  UNL1        0.0266
     57 H           4.3523   -1.1077    0.0000 H       1  UNL1        0.0266
     58 H           3.9538   -0.4174    0.0000 H       1  UNL1        0.0266
     59 H           6.0298   -1.9631    0.0000 H       1  UNL1        0.0246
     60 H           5.8029   -2.8100    0.0000 H       1  UNL1        0.0246
     61 H           6.6498   -3.0369    0.0000 H       1  UNL1        0.0246
     62 H           4.9178    1.9631    0.0000 H       1  UNL1        0.0246
     63 H           5.1447    2.8100    0.0000 H       1  UNL1        0.0246
     64 H           4.2978    3.0369    0.0000 H       1  UNL1        0.0246
     65 H           7.8164    1.8923    0.0000 H       1  UNL1        0.0265
     66 H           7.4179    2.5826    0.0000 H       1  UNL1        0.0265
     67 H           3.1312   -1.8923    0.0000 H       1  UNL1        0.0265
     68 H           3.5297   -2.5826    0.0000 H       1  UNL1        0.0265
     69 H           5.7292    2.6077    0.0000 H       1  UNL1        0.0265
     70 H           6.1278    1.9174    0.0000 H       1  UNL1        0.0265
     71 H           5.2184   -2.6077    0.0000 H       1  UNL1        0.0265
     72 H           4.8198   -1.9174    0.0000 H       1  UNL1        0.0265
     73 H           6.9504    3.3923    0.0000 H       1  UNL1        0.0265
     74 H           6.5519    4.0826    0.0000 H       1  UNL1        0.0265
     75 H           3.9972   -3.3923    0.0000 H       1  UNL1        0.0265
     76 H           4.3957   -4.0826    0.0000 H       1  UNL1        0.0265
     77 H           5.8723    4.4750    0.0000 H       1  UNL1        0.0270
     78 H           5.0753    4.4750    0.0000 H       1  UNL1        0.0270
     79 H           5.0753   -4.4750    0.0000 H       1  UNL1        0.0270
     80 H           5.8723   -4.4750    0.0000 H       1  UNL1        0.0270
     81 H           6.7383   -3.0250    0.0000 H       1  UNL1        0.0377
     82 H           5.9413   -3.0250    0.0000 H       1  UNL1        0.0377
     83 H           4.2092    3.0250    0.0000 H       1  UNL1        0.0377
     84 H           5.0063    3.0250    0.0000 H       1  UNL1        0.0377
@<TRIPOS>BOND
     1     1    11    1
     2     1    31    1
     3     2    12    1
     4     2    32    1
     5     3    31    2
     6     4    32    2
     7     5     7    1
     8     5     9    1
     9     5    49    1
    10     6     8    1
    11     6    10    1
    12     6    50    1
    13     7    13    1
    14     7    17    1
    15     7    35    1
    16     8    14    1
    17     8    18    1
    18     8    36    1
    19     9    11    1
    20     9    21    1
    21     9    37    1
    22    10    12    1
    23    10    22    1
    24    10    38    1
    25    11    15    1
    26    11    39    1
    27    12    16    1
    28    12    40    1
    29    13    15    1
    30    13    41    1
    31    13    42    1
    32    14    16    1
    33    14    43    1
    34    14    44    1
    35    15    45    1
    36    15    46    1
    37    16    47    1
    38    16    48    1
    39    17    19    1
    40    17    51    1
    41    17    52    1
    42    18    20    1
    43    18    53    1
    44    18    54    1
    45    19    23    1
    46    19    55    1
    47    19    56    1
    48    20    24    1
    49    20    57    1
    50    20    58    1
    51    21    59    1
    52    21    60    1
    53    21    61    1
    54    22    62    1
    55    22    63    1
    56    22    64    1
    57    23    25    1
    58    23    65    1
    59    23    66    1
    60    24    26    1
    61    24    67    1
    62    24    68    1
    63    25    27    1
    64    25    69    1
    65    25    70    1
    66    26    28    1
    67    26    71    1
    68    26    72    1
    69    27    29    1
    70    27    73    1
    71    27    74    1
    72    28    30    1
    73    28    75    1
    74    28    76    1
    75    29    34    1
    76    29    77    1
    77    29    78    1
    78    30    33    1
    79    30    79    1
    80    30    80    1
    81    31    33    1
    82    32    34    1
    83    33    81    1
    84    33    82    1
    85    34    83    1
    86    34    84    1
