@<TRIPOS>MOLECULE
IMPHY012422
 37 39 0 0 0
SMALL
GASTEIGER

@<TRIPOS>ATOM
      1 O           7.3424   -1.3047    0.0000 O.2     1  UNL1       -0.4591
      2 O           3.7702   -1.5347    0.0000 O.2     1  UNL1       -0.4183
      3 O           5.5301   -2.5000    0.0000 O.3     1  UNL1       -0.4884
      4 O           2.0000   -1.5241    0.0000 O.2     1  UNL1       -0.2452
      5 C           5.5301    1.5000    0.0000 C.3     1  UNL1        0.0092
      6 C           5.5301    0.5000    0.0000 C.ar    1  UNL1       -0.0164
      7 C           6.3961    0.0000    0.0000 C.ar    1  UNL1        0.0286
      8 C           4.6641    0.0000    0.0000 C.ar    1  UNL1        0.0261
      9 C           6.5301    1.5000    0.0000 C.3     1  UNL1       -0.0523
     10 C           4.5301    1.5000    0.0000 C.3     1  UNL1       -0.0523
     11 C           6.3961   -1.0000    0.0000 C.ar    1  UNL1        0.1802
     12 C           4.6641   -1.0000    0.0000 C.ar    1  UNL1        0.1844
     13 C           5.5301    2.5000    0.0000 C.2     1  UNL1       -0.0811
     14 C           5.5301   -1.5000    0.0000 C.ar    1  UNL1        0.2061
     15 C           7.3424    0.3047    0.0000 C.ar    1  UNL1       -0.0157
     16 C           3.7702    0.5347    0.0000 C.ar    1  UNL1       -0.0439
     17 C           7.9260   -0.5000    0.0000 C.ar    1  UNL1        0.0933
     18 C           2.8641    0.0208    0.0000 C.ar    1  UNL1        0.0236
     19 C           6.3961    3.0000    0.0000 C.2     1  UNL1       -0.1018
     20 C           2.8641   -1.0208    0.0000 C.ar    1  UNL1        0.3373
     21 C           6.3961   -3.0000    0.0000 C.3     1  UNL1        0.0791
     22 H           6.5301    0.8800    0.0000 H       1  UNL1        0.0241
     23 H           7.1501    1.5000    0.0000 H       1  UNL1        0.0241
     24 H           6.5301    2.1200    0.0000 H       1  UNL1        0.0241
     25 H           4.5301    2.1200    0.0000 H       1  UNL1        0.0241
     26 H           3.9101    1.5000    0.0000 H       1  UNL1        0.0241
     27 H           4.5301    0.8800    0.0000 H       1  UNL1        0.0241
     28 H           4.9932    2.8100    0.0000 H       1  UNL1        0.0575
     29 H           7.5350    0.8941    0.0000 H       1  UNL1        0.0655
     30 H           3.7773    1.1546    0.0000 H       1  UNL1        0.0627
     31 H           8.5460   -0.5000    0.0000 H       1  UNL1        0.1030
     32 H           2.3284    0.3329    0.0000 H       1  UNL1        0.0689
     33 H           6.9331    2.6900    0.0000 H       1  UNL1        0.0532
     34 H           6.3961    3.6200    0.0000 H       1  UNL1        0.0532
     35 H           6.0862   -3.5369    0.0000 H       1  UNL1        0.0660
     36 H           6.9331   -3.3100    0.0000 H       1  UNL1        0.0660
     37 H           6.7062   -2.4631    0.0000 H       1  UNL1        0.0660
@<TRIPOS>BOND
     1     1    11   ar
     2     1    17   ar
     3     2    12   ar
     4     2    20   ar
     5     3    14    1
     6     3    21    1
     7     4    20    2
     8     5     6    1
     9     5     9    1
    10     5    10    1
    11     5    13    1
    12     6     7   ar
    13     6     8   ar
    14     7    11   ar
    15     7    15   ar
    16     8    12   ar
    17     8    16   ar
    18     9    22    1
    19     9    23    1
    20     9    24    1
    21    10    25    1
    22    10    26    1
    23    10    27    1
    24    11    14   ar
    25    12    14   ar
    26    13    19    2
    27    13    28    1
    28    15    17   ar
    29    15    29    1
    30    16    18   ar
    31    16    30    1
    32    17    31    1
    33    18    20   ar
    34    18    32    1
    35    19    33    1
    36    19    34    1
    37    21    35    1
    38    21    36    1
    39    21    37    1
