@<TRIPOS>MOLECULE
IMPHY007913
 78 82 0 0 0
SMALL
GASTEIGER

@<TRIPOS>ATOM
      1 O           8.6528    2.4913    0.0000 O.3     1  UNL1       -0.3723
      2 O           2.0000   -3.4343    0.0000 O.2     1  UNL1       -0.2968
      3 C           7.3931   -0.3820    0.0000 C.3     1  UNL1       -0.0198
      4 C           7.3931   -1.3820    0.0000 C.3     1  UNL1       -0.0051
      5 C           8.3393   -0.0773    0.0000 C.3     1  UNL1       -0.0298
      6 C           5.6610   -1.3820    0.0000 C.3     1  UNL1       -0.0136
      7 C           4.7510   -1.8888    0.0000 C.3     1  UNL1       -0.0212
      8 C           6.5271   -1.8820    0.0000 C.2     1  UNL1       -0.0634
      9 C           6.5271    0.1180    0.0000 C.3     1  UNL1       -0.0460
     10 C           8.3393   -1.6867    0.0000 C.3     1  UNL1       -0.0431
     11 C           8.9229   -0.8820    0.0000 C.3     1  UNL1       -0.0486
     12 C           5.6610   -0.3820    0.0000 C.3     1  UNL1       -0.0455
     13 C           4.7430   -2.9304    0.0000 C.3     1  UNL1       -0.0198
     14 C           8.6500    0.8733    0.0000 C.3     1  UNL1       -0.0116
     15 C           7.3931    0.6180    0.0000 C.3     1  UNL1       -0.0585
     16 C           7.3931   -2.3820    0.0000 C.3     1  UNL1       -0.0553
     17 C           3.8242   -1.3248    0.0000 C.3     1  UNL1       -0.0401
     18 C           5.6451   -3.4512    0.0000 C.3     1  UNL1       -0.0302
     19 C           3.8076   -3.4802    0.0000 C.3     1  UNL1        0.0270
     20 C           6.5431   -2.9235    0.0000 C.2     1  UNL1       -0.0836
     21 C           4.7587   -0.8889    0.0000 C.3     1  UNL1       -0.0587
     22 C           9.6016    1.1806    0.0000 C.3     1  UNL1       -0.0178
     23 C           2.8763   -1.8527    0.0000 C.3     1  UNL1        0.0069
     24 C           8.0636    1.6833    0.0000 C.3     1  UNL1        0.0516
     25 C           2.8680   -2.9377    0.0000 C.2     1  UNL1        0.1392
     26 C           9.6033    2.1806    0.0000 C.3     1  UNL1        0.0774
     27 C           3.3109   -4.3481    0.0000 C.3     1  UNL1       -0.0528
     28 C           4.3109   -4.3442    0.0000 C.3     1  UNL1       -0.0528
     29 C          10.4133    2.7670    0.0000 C.2     1  UNL1       -0.0569
     30 C          10.3105    3.7617    0.0000 C.2     1  UNL1       -0.0772
     31 C          11.1205    4.3481    0.0000 C.3     1  UNL1       -0.0440
     32 C           9.3977    4.1700    0.0000 C.3     1  UNL1       -0.0440
     33 H           9.1790    0.0546    0.0000 H       1  UNL1        0.0310
     34 H           6.3972   -0.9570    0.0000 H       1  UNL1        0.0351
     35 H           6.9256    0.5930    0.0000 H       1  UNL1        0.0271
     36 H           6.1285    0.5930    0.0000 H       1  UNL1        0.0271
     37 H           8.0883   -2.2536    0.0000 H       1  UNL1        0.0274
     38 H           8.8767   -1.9960    0.0000 H       1  UNL1        0.0274
     39 H           9.3838   -1.2967    0.0000 H       1  UNL1        0.0268
     40 H           9.3838   -0.4673    0.0000 H       1  UNL1        0.0268
     41 H           5.4490    0.2006    0.0000 H       1  UNL1        0.0271
     42 H           5.0504   -0.4896    0.0000 H       1  UNL1        0.0271
     43 H           4.7463   -3.7804    0.0000 H       1  UNL1        0.0318
     44 H           7.8102    0.7417    0.0000 H       1  UNL1        0.0327
     45 H           8.0131    0.6180    0.0000 H       1  UNL1        0.0235
     46 H           7.3931    1.2380    0.0000 H       1  UNL1        0.0235
     47 H           6.7731    0.6180    0.0000 H       1  UNL1        0.0235
     48 H           6.7731   -2.3820    0.0000 H       1  UNL1        0.0238
     49 H           7.3931   -3.0020    0.0000 H       1  UNL1        0.0238
     50 H           8.0131   -2.3820    0.0000 H       1  UNL1        0.0238
     51 H           4.2324   -0.8581    0.0000 H       1  UNL1        0.0275
     52 H           3.4343   -0.8427    0.0000 H       1  UNL1        0.0275
     53 H           5.2478   -3.9272    0.0000 H       1  UNL1        0.0311
     54 H           6.0460   -3.9241    0.0000 H       1  UNL1        0.0311
     55 H           7.0836   -3.2273    0.0000 H       1  UNL1        0.0572
     56 H           5.3787   -0.8936    0.0000 H       1  UNL1        0.0235
     57 H           4.7635   -0.2689    0.0000 H       1  UNL1        0.0235
     58 H           4.1388   -0.8841    0.0000 H       1  UNL1        0.0235
     59 H           9.7294    0.5740    0.0000 H       1  UNL1        0.0297
     60 H          10.2183    1.2444    0.0000 H       1  UNL1        0.0297
     61 H           2.6718   -1.2674    0.0000 H       1  UNL1        0.0342
     62 H           2.2647   -1.9541    0.0000 H       1  UNL1        0.0342
     63 H           7.6036    2.0990    0.0000 H       1  UNL1        0.0563
     64 H           7.6021    1.2692    0.0000 H       1  UNL1        0.0563
     65 H           9.5074    2.7932    0.0000 H       1  UNL1        0.0640
     66 H           2.7728   -4.0402    0.0000 H       1  UNL1        0.0239
     67 H           3.0030   -4.8862    0.0000 H       1  UNL1        0.0239
     68 H           3.8490   -4.6560    0.0000 H       1  UNL1        0.0239
     69 H           3.7752   -4.6563    0.0000 H       1  UNL1        0.0239
     70 H           4.6230   -4.8800    0.0000 H       1  UNL1        0.0239
     71 H           4.8466   -4.0322    0.0000 H       1  UNL1        0.0239
     72 H          10.9793    2.5139    0.0000 H       1  UNL1        0.0597
     73 H          11.4841    3.8459    0.0000 H       1  UNL1        0.0274
     74 H          11.6228    4.7117    0.0000 H       1  UNL1        0.0274
     75 H          10.7570    4.8503    0.0000 H       1  UNL1        0.0274
     76 H           9.6508    4.7360    0.0000 H       1  UNL1        0.0274
     77 H           8.8317    4.4232    0.0000 H       1  UNL1        0.0274
     78 H           9.1445    3.6041    0.0000 H       1  UNL1        0.0274
@<TRIPOS>BOND
     1     1    24    1
     2     1    26    1
     3     2    25    2
     4     3     4    1
     5     3     5    1
     6     3     9    1
     7     3    15    1
     8     4     8    1
     9     4    10    1
    10     4    16    1
    11     5    11    1
    12     5    14    1
    13     5    33    1
    14     6     7    1
    15     6     8    1
    16     6    12    1
    17     6    34    1
    18     7    13    1
    19     7    17    1
    20     7    21    1
    21     8    20    2
    22     9    12    1
    23     9    35    1
    24     9    36    1
    25    10    11    1
    26    10    37    1
    27    10    38    1
    28    11    39    1
    29    11    40    1
    30    12    41    1
    31    12    42    1
    32    13    18    1
    33    13    19    1
    34    13    43    1
    35    14    22    1
    36    14    24    1
    37    14    44    1
    38    15    45    1
    39    15    46    1
    40    15    47    1
    41    16    48    1
    42    16    49    1
    43    16    50    1
    44    17    23    1
    45    17    51    1
    46    17    52    1
    47    18    20    1
    48    18    53    1
    49    18    54    1
    50    19    25    1
    51    19    27    1
    52    19    28    1
    53    20    55    1
    54    21    56    1
    55    21    57    1
    56    21    58    1
    57    22    26    1
    58    22    59    1
    59    22    60    1
    60    23    25    1
    61    23    61    1
    62    23    62    1
    63    24    63    1
    64    24    64    1
    65    26    29    1
    66    26    65    1
    67    27    66    1
    68    27    67    1
    69    27    68    1
    70    28    69    1
    71    28    70    1
    72    28    71    1
    73    29    30    2
    74    29    72    1
    75    30    31    1
    76    30    32    1
    77    31    73    1
    78    31    74    1
    79    31    75    1
    80    32    76    1
    81    32    77    1
    82    32    78    1
