@<TRIPOS>MOLECULE
IMPHY002351
 86 97 0 0 0
SMALL
GASTEIGER

@<TRIPOS>ATOM
      1 O           4.5732    3.5673    0.0000 O.3     1  UNL1       -0.4522
      2 O           8.1911    3.5673    0.0000 O.3     1  UNL1       -0.4522
      3 O           6.3821    0.3368    0.0000 O.2     1  UNL1       -0.2973
      4 O           3.1278    4.4167    0.0000 O.3     1  UNL1       -0.4526
      5 O           9.6365    4.4167    0.0000 O.3     1  UNL1       -0.4526
      6 O           5.5740   -3.5278    0.0000 O.3     1  UNL1       -0.4526
      7 O           7.1903   -3.5278    0.0000 O.3     1  UNL1       -0.4526
      8 O           4.0684   -4.4125    0.0000 O.3     1  UNL1       -0.4526
      9 O           8.6958   -4.4125    0.0000 O.3     1  UNL1       -0.4526
     10 N           4.6501    0.3368    0.0000 N.pl3   1  UNL1       -0.3244
     11 N           8.1142    0.3368    0.0000 N.pl3   1  UNL1       -0.3244
     12 C           4.6501    1.3368    0.0000 C.3     1  UNL1        0.0592
     13 C           8.1142    1.3368    0.0000 C.3     1  UNL1        0.0592
     14 C           5.5161    1.8368    0.0000 C.3     1  UNL1        0.0287
     15 C           7.2482    1.8368    0.0000 C.3     1  UNL1        0.0287
     16 C           8.9802    1.8368    0.0000 C.ar    1  UNL1        0.0264
     17 C           3.7841    1.8368    0.0000 C.ar    1  UNL1        0.0264
     18 C           3.7841   -0.1632    0.0000 C.ar    1  UNL1        0.0457
     19 C           8.9802   -0.1632    0.0000 C.ar    1  UNL1        0.0457
     20 C           6.3821    1.3368    0.0000 C.2     1  UNL1        0.1375
     21 C           9.8462    1.3368    0.0000 C.ar    1  UNL1       -0.0074
     22 C           2.9180    1.3368    0.0000 C.ar    1  UNL1       -0.0074
     23 C           9.8462    0.3368    0.0000 C.ar    1  UNL1        0.0042
     24 C           2.9180    0.3368    0.0000 C.ar    1  UNL1        0.0042
     25 C           3.8001    2.8783    0.0000 C.ar    1  UNL1        0.1717
     26 C           8.9642    2.8783    0.0000 C.ar    1  UNL1        0.1717
     27 C           3.8001   -1.2047    0.0000 C.ar    1  UNL1        0.0074
     28 C           8.9642   -1.2047    0.0000 C.ar    1  UNL1        0.0074
     29 C           5.5161   -0.1632    0.0000 C.3     1  UNL1        0.0013
     30 C           7.2482   -0.1632    0.0000 C.3     1  UNL1        0.0013
     31 C           2.0080    1.8437    0.0000 C.ar    1  UNL1       -0.0500
     32 C          10.7562    1.8437    0.0000 C.ar    1  UNL1       -0.0500
     33 C          10.7562   -0.1700    0.0000 C.ar    1  UNL1       -0.0517
     34 C           2.0080   -0.1700    0.0000 C.ar    1  UNL1       -0.0517
     35 C           9.8622    3.4061    0.0000 C.ar    1  UNL1        0.1666
     36 C           2.9021    3.4061    0.0000 C.ar    1  UNL1        0.1666
     37 C           9.8622   -1.7324    0.0000 C.ar    1  UNL1       -0.0124
     38 C           2.9021   -1.7324    0.0000 C.ar    1  UNL1       -0.0124
     39 C           2.0000    2.8853    0.0000 C.ar    1  UNL1       -0.0155
     40 C          10.7643    2.8853    0.0000 C.ar    1  UNL1       -0.0155
     41 C          10.7643   -1.2116    0.0000 C.ar    1  UNL1       -0.0532
     42 C           2.0000   -1.2116    0.0000 C.ar    1  UNL1       -0.0532
     43 C           8.0122   -1.7253    0.0000 C.ar    1  UNL1       -0.0066
     44 C           4.7520   -1.7253    0.0000 C.ar    1  UNL1       -0.0066
     45 C           2.8937   -2.8174    0.0000 C.ar    1  UNL1       -0.0084
     46 C           9.8706   -2.8174    0.0000 C.ar    1  UNL1       -0.0084
     47 C           4.1585    4.5161    0.0000 C.3     1  UNL1        0.2332
     48 C           8.6058    4.5161    0.0000 C.3     1  UNL1        0.2332
     49 C           7.9955   -2.8102    0.0000 C.ar    1  UNL1        0.1669
     50 C           4.7688   -2.8102    0.0000 C.ar    1  UNL1        0.1669
     51 C           8.9309   -3.3599    0.0000 C.ar    1  UNL1        0.1668
     52 C           3.8334   -3.3599    0.0000 C.ar    1  UNL1        0.1668
     53 C           7.6222   -4.5161    0.0000 C.3     1  UNL1        0.2332
     54 C           5.1420   -4.5161    0.0000 C.3     1  UNL1        0.2332
     55 H           5.1870    1.0268    0.0000 H       1  UNL1        0.0555
     56 H           7.5772    1.0268    0.0000 H       1  UNL1        0.0555
     57 H           5.9146    2.3118    0.0000 H       1  UNL1        0.0363
     58 H           5.1176    2.3118    0.0000 H       1  UNL1        0.0363
     59 H           7.6467    2.3118    0.0000 H       1  UNL1        0.0363
     60 H           6.8496    2.3118    0.0000 H       1  UNL1        0.0363
     61 H           6.9382    0.3738    0.0000 H       1  UNL1        0.0428
     62 H           6.7112   -0.4732    0.0000 H       1  UNL1        0.0428
     63 H           7.5582   -0.7001    0.0000 H       1  UNL1        0.0428
     64 H           5.2061   -0.7001    0.0000 H       1  UNL1        0.0428
     65 H           6.0530   -0.4732    0.0000 H       1  UNL1        0.0428
     66 H           5.8261    0.3738    0.0000 H       1  UNL1        0.0428
     67 H           1.4747    1.5275    0.0000 H       1  UNL1        0.0625
     68 H          11.2896    1.5275    0.0000 H       1  UNL1        0.0625
     69 H           1.4747    0.1462    0.0000 H       1  UNL1        0.0624
     70 H          11.2896    0.1462    0.0000 H       1  UNL1        0.0624
     71 H           1.4619    3.1932    0.0000 H       1  UNL1        0.0655
     72 H          11.3024    3.1932    0.0000 H       1  UNL1        0.0655
     73 H           1.4619   -1.5195    0.0000 H       1  UNL1        0.0624
     74 H          11.3024   -1.5195    0.0000 H       1  UNL1        0.0624
     75 H           7.4814   -1.4050    0.0000 H       1  UNL1        0.0662
     76 H           5.2829   -1.4050    0.0000 H       1  UNL1        0.0662
     77 H          10.4087   -3.1253    0.0000 H       1  UNL1        0.0661
     78 H           2.3556   -3.1253    0.0000 H       1  UNL1        0.0661
     79 H           8.7299    5.1235    0.0000 H       1  UNL1        0.1166
     80 H           8.0147    4.7033    0.0000 H       1  UNL1        0.1166
     81 H           4.7495    4.7033    0.0000 H       1  UNL1        0.1166
     82 H           4.0344    5.1235    0.0000 H       1  UNL1        0.1166
     83 H           5.0180   -5.1235    0.0000 H       1  UNL1        0.1166
     84 H           7.0312   -4.7033    0.0000 H       1  UNL1        0.1166
     85 H           7.7463   -5.1235    0.0000 H       1  UNL1        0.1166
     86 H           5.7331   -4.7033    0.0000 H       1  UNL1        0.1166
@<TRIPOS>BOND
     1     1    25    1
     2     1    47    1
     3     2    26    1
     4     2    48    1
     5     3    20    2
     6     4    36    1
     7     4    47    1
     8     5    35    1
     9     5    48    1
    10     6    50    1
    11     6    54    1
    12     7    49    1
    13     7    53    1
    14     8    52    1
    15     8    54    1
    16     9    51    1
    17     9    53    1
    18    10    12    1
    19    10    18    1
    20    10    29    1
    21    11    13    1
    22    11    19    1
    23    11    30    1
    24    12    14    1
    25    12    17    1
    26    12    55    1
    27    13    15    1
    28    13    16    1
    29    13    56    1
    30    14    20    1
    31    14    57    1
    32    14    58    1
    33    15    20    1
    34    15    59    1
    35    15    60    1
    36    16    21   ar
    37    16    26   ar
    38    17    22   ar
    39    17    25   ar
    40    18    24   ar
    41    18    27   ar
    42    19    23   ar
    43    19    28   ar
    44    21    23    1
    45    21    32   ar
    46    22    24    1
    47    22    31   ar
    48    23    33   ar
    49    24    34   ar
    50    25    36   ar
    51    26    35   ar
    52    27    38   ar
    53    27    44   ar
    54    28    37   ar
    55    28    43   ar
    56    29    64    1
    57    29    65    1
    58    29    66    1
    59    30    61    1
    60    30    62    1
    61    30    63    1
    62    31    39   ar
    63    31    67    1
    64    32    40   ar
    65    32    68    1
    66    33    41   ar
    67    33    70    1
    68    34    42   ar
    69    34    69    1
    70    35    40   ar
    71    36    39   ar
    72    37    41   ar
    73    37    46   ar
    74    38    42   ar
    75    38    45   ar
    76    39    71    1
    77    40    72    1
    78    41    74    1
    79    42    73    1
    80    43    49   ar
    81    43    75    1
    82    44    50   ar
    83    44    76    1
    84    45    52   ar
    85    45    78    1
    86    46    51   ar
    87    46    77    1
    88    47    81    1
    89    47    82    1
    90    48    79    1
    91    48    80    1
    92    49    51   ar
    93    50    52   ar
    94    53    84    1
    95    53    85    1
    96    54    83    1
    97    54    86    1
