@<TRIPOS>MOLECULE
IMPHY011056
 24 23 0 0 0
SMALL
GASTEIGER

@<TRIPOS>ATOM
      1 O           4.5981    0.7500    0.0000 O.3     1  UNL1       -0.4646
      2 O           3.7320   -0.7500    0.0000 O.2     1  UNL1       -0.2509
      3 C           6.3301    0.7500    0.0000 C.3     1  UNL1       -0.0151
      4 C           5.4641    0.2500    0.0000 C.3     1  UNL1        0.0927
      5 C           7.1962    0.2500    0.0000 C.3     1  UNL1       -0.0319
      6 C           2.8660    0.7500    0.0000 C.3     1  UNL1        0.0421
      7 C           8.0622    0.7500    0.0000 C.2     1  UNL1       -0.0910
      8 C           3.7320    0.2500    0.0000 C.2     1  UNL1        0.3068
      9 C           2.0000    0.2500    0.0000 C.3     1  UNL1       -0.0552
     10 C           8.9282    0.2500    0.0000 C.2     1  UNL1       -0.1026
     11 H           6.7287    1.2250    0.0000 H       1  UNL1        0.0301
     12 H           5.9316    1.2250    0.0000 H       1  UNL1        0.0301
     13 H           5.0656   -0.2249    0.0000 H       1  UNL1        0.0697
     14 H           5.8626   -0.2249    0.0000 H       1  UNL1        0.0697
     15 H           6.7976   -0.2249    0.0000 H       1  UNL1        0.0308
     16 H           7.5947   -0.2249    0.0000 H       1  UNL1        0.0308
     17 H           3.2646    1.2250    0.0000 H       1  UNL1        0.0375
     18 H           2.4675    1.2250    0.0000 H       1  UNL1        0.0375
     19 H           8.0622    1.3700    0.0000 H       1  UNL1        0.0566
     20 H           1.6900    0.7869    0.0000 H       1  UNL1        0.0235
     21 H           1.4631   -0.0600    0.0000 H       1  UNL1        0.0235
     22 H           2.3100   -0.2869    0.0000 H       1  UNL1        0.0235
     23 H           8.9282   -0.3700    0.0000 H       1  UNL1        0.0532
     24 H           9.4651    0.5600    0.0000 H       1  UNL1        0.0532
@<TRIPOS>BOND
     1     1     4    1
     2     1     8    1
     3     2     8    2
     4     3     4    1
     5     3     5    1
     6     3    11    1
     7     3    12    1
     8     4    13    1
     9     4    14    1
    10     5     7    1
    11     5    15    1
    12     5    16    1
    13     6     8    1
    14     6     9    1
    15     6    17    1
    16     6    18    1
    17     7    10    2
    18     7    19    1
    19     9    20    1
    20     9    21    1
    21     9    22    1
    22    10    23    1
    23    10    24    1
