@<TRIPOS>MOLECULE
IMPHY004319
 74 77 0 0 0
SMALL
GASTEIGER

@<TRIPOS>ATOM
      1 O           8.2469    2.8975    0.0000 O.3     1  UNL1       -0.3886
      2 O           5.0135   -2.6227    0.0000 O.3     1  UNL1       -0.5055
      3 O           5.6888    0.7750    0.0000 O.3     1  UNL1       -0.5055
      4 O           2.4087   -0.3390    0.0000 O.3     1  UNL1       -0.5051
      5 O           2.7464    1.3598    0.0000 O.2     1  UNL1       -0.2955
      6 O           2.0711   -2.0378    0.0000 O.2     1  UNL1       -0.2955
      7 C           8.7469   -0.2931    0.0000 C.3     1  UNL1       -0.0286
      8 C           9.5733   -0.8569    0.0000 C.3     1  UNL1       -0.0284
      9 C           9.6478    0.1408    0.0000 C.3     1  UNL1       -0.0319
     10 C           7.8459    0.1408    0.0000 C.3     1  UNL1       -0.0261
     11 C           7.6234    1.1157    0.0000 C.3     1  UNL1       -0.0088
     12 C           6.9912   -0.3669    0.0000 C.3     1  UNL1       -0.0216
     13 C           9.8704    1.1157    0.0000 C.3     1  UNL1       -0.0468
     14 C           8.2469    1.8975    0.0000 C.3     1  UNL1        0.0664
     15 C           6.6331    1.2022    0.0000 C.3     1  UNL1       -0.0468
     16 C           6.2432    0.2878    0.0000 C.3     1  UNL1       -0.0464
     17 C           9.2469    1.8975    0.0000 C.3     1  UNL1       -0.0237
     18 C          10.5705   -0.9316    0.0000 C.3     1  UNL1       -0.0593
     19 C           9.0100   -1.6831    0.0000 C.3     1  UNL1       -0.0593
     20 C           6.3320   -1.1188    0.0000 C.3     1  UNL1       -0.0030
     21 C           7.5026   -1.2262    0.0000 C.3     1  UNL1       -0.0587
     22 C           7.4650    2.5210    0.0000 C.3     1  UNL1       -0.0358
     23 C           6.6536   -2.0657    0.0000 C.3     1  UNL1       -0.0431
     24 C           5.3512   -0.9239    0.0000 C.ar    1  UNL1        0.0406
     25 C           7.6344   -2.2606    0.0000 C.3     1  UNL1       -0.0462
     26 C           4.6919   -1.6758    0.0000 C.ar    1  UNL1        0.1375
     27 C           5.0296    0.0230    0.0000 C.ar    1  UNL1        0.1375
     28 C           7.9559   -3.2075    0.0000 C.3     1  UNL1       -0.0626
     29 C           8.2936   -1.5087    0.0000 C.3     1  UNL1       -0.0626
     30 C           3.7111   -1.4808    0.0000 C.ar    1  UNL1        0.0980
     31 C           4.0488    0.2180    0.0000 C.ar    1  UNL1        0.0980
     32 C           3.3895   -0.5339    0.0000 C.ar    1  UNL1        0.1443
     33 C           3.7272    1.1649    0.0000 C.2     1  UNL1        0.1573
     34 C           3.0519   -2.2328    0.0000 C.2     1  UNL1        0.1573
     35 H           8.3218   -1.0292    0.0000 H       1  UNL1        0.0312
     36 H          10.4884    0.0142    0.0000 H       1  UNL1        0.0309
     37 H           7.8829   -0.7084    0.0000 H       1  UNL1        0.0313
     38 H           7.2883    1.8969    0.0000 H       1  UNL1        0.0331
     39 H          10.4290    0.8467    0.0000 H       1  UNL1        0.0269
     40 H          10.2569    1.6004    0.0000 H       1  UNL1        0.0269
     41 H           6.7517    1.8108    0.0000 H       1  UNL1        0.0269
     42 H           6.0404    1.3841    0.0000 H       1  UNL1        0.0269
     43 H           5.7016    0.5896    0.0000 H       1  UNL1        0.0271
     44 H           5.8862   -0.2191    0.0000 H       1  UNL1        0.0271
     45 H           9.8055    2.1665    0.0000 H       1  UNL1        0.0293
     46 H           9.1089    2.5020    0.0000 H       1  UNL1        0.0293
     47 H          10.5242   -1.5499    0.0000 H       1  UNL1        0.0235
     48 H          11.1888   -0.9780    0.0000 H       1  UNL1        0.0235
     49 H          10.6169   -0.3134    0.0000 H       1  UNL1        0.0235
     50 H           8.4978   -1.3339    0.0000 H       1  UNL1        0.0235
     51 H           8.6608   -2.1954    0.0000 H       1  UNL1        0.0235
     52 H           9.5223   -2.0324    0.0000 H       1  UNL1        0.0235
     53 H           5.9232   -1.5850    0.0000 H       1  UNL1        0.0357
     54 H           6.9698   -1.5433    0.0000 H       1  UNL1        0.0235
     55 H           7.8197   -1.7590    0.0000 H       1  UNL1        0.0235
     56 H           8.0354   -0.9091    0.0000 H       1  UNL1        0.0235
     57 H           7.8516    3.0058    0.0000 H       1  UNL1        0.0257
     58 H           6.9803    2.9076    0.0000 H       1  UNL1        0.0257
     59 H           7.0785    2.0363    0.0000 H       1  UNL1        0.0257
     60 H           6.0408   -2.1601    0.0000 H       1  UNL1        0.0274
     61 H           6.6401   -2.6856    0.0000 H       1  UNL1        0.0274
     62 H           8.7838    3.2075    0.0000 H       1  UNL1        0.2102
     63 H           7.2256   -2.7268    0.0000 H       1  UNL1        0.0296
     64 H           7.3689   -3.4069    0.0000 H       1  UNL1        0.0232
     65 H           8.1553   -3.7946    0.0000 H       1  UNL1        0.0232
     66 H           8.5430   -3.0082    0.0000 H       1  UNL1        0.0232
     67 H           8.7598   -1.9174    0.0000 H       1  UNL1        0.0232
     68 H           8.7023   -1.0425    0.0000 H       1  UNL1        0.0232
     69 H           7.8274   -1.1000    0.0000 H       1  UNL1        0.0232
     70 H           4.6048   -3.0889    0.0000 H       1  UNL1        0.2922
     71 H           5.4895    1.3620    0.0000 H       1  UNL1        0.2922
     72 H           4.1359    1.6311    0.0000 H       1  UNL1        0.1084
     73 H           3.2513   -2.8198    0.0000 H       1  UNL1        0.1084
     74 H           2.0000   -0.8052    0.0000 H       1  UNL1        0.2922
@<TRIPOS>BOND
     1    14     1    1
     2     1    62    1
     3     2    26    1
     4     2    70    1
     5     3    27    1
     6     3    71    1
     7     4    32    1
     8     4    74    1
     9     5    33    2
    10     6    34    2
    11     7     8    1
    12     7     9    1
    13     7    10    1
    14     7    35    1
    15     8     9    1
    16     8    18    1
    17     8    19    1
    18     9    13    1
    19     9    36    1
    20    10    11    1
    21    10    12    1
    22    10    37    1
    23    11    14    1
    24    11    15    1
    25    11    38    1
    26    12    16    1
    27    12    20    1
    28    12    21    1
    29    13    17    1
    30    13    39    1
    31    13    40    1
    32    14    17    1
    33    14    22    1
    34    15    16    1
    35    15    41    1
    36    15    42    1
    37    16    43    1
    38    16    44    1
    39    17    45    1
    40    17    46    1
    41    18    47    1
    42    18    48    1
    43    18    49    1
    44    19    50    1
    45    19    51    1
    46    19    52    1
    47    20    23    1
    48    20    24    1
    49    20    53    1
    50    21    54    1
    51    21    55    1
    52    21    56    1
    53    22    57    1
    54    22    58    1
    55    22    59    1
    56    23    25    1
    57    23    60    1
    58    23    61    1
    59    24    26   ar
    60    24    27   ar
    61    25    28    1
    62    25    29    1
    63    25    63    1
    64    26    30   ar
    65    27    31   ar
    66    28    64    1
    67    28    65    1
    68    28    66    1
    69    29    67    1
    70    29    68    1
    71    29    69    1
    72    30    32   ar
    73    30    34    1
    74    31    32   ar
    75    31    33    1
    76    33    72    1
    77    34    73    1
