@<TRIPOS>MOLECULE
IMPHY005927
 54 57 0 0 0
SMALL
GASTEIGER

@<TRIPOS>ATOM
      1 O           6.0427   -2.0357    0.0000 O.3     1  UNL1       -0.3313
      2 O           7.7748   -2.0357    0.0000 O.3     1  UNL1       -0.4570
      3 O           6.0427   -5.0357    0.0000 O.3     1  UNL1       -0.3864
      4 O           4.3107   -4.0357    0.0000 O.3     1  UNL1       -0.3865
      5 O           7.7748   -4.0357    0.0000 O.3     1  UNL1       -0.3829
      6 O           3.4446   -2.5357    0.0000 O.3     1  UNL1       -0.3924
      7 O           6.0427    1.9643    0.0000 O.2     1  UNL1       -0.4507
      8 O           9.5068   -1.0357    0.0000 O.3     1  UNL1       -0.5009
      9 O           9.5068    0.9643    0.0000 O.3     1  UNL1       -0.5032
     10 O           5.1767   -0.5357    0.0000 O.3     1  UNL1       -0.5007
     11 O           3.4446    0.4643    0.0000 O.2     1  UNL1       -0.2830
     12 O           2.5405    1.9612    0.0000 O.3     1  UNL1       -0.5058
     13 O           4.2986    5.0336    0.0000 O.3     1  UNL1       -0.5065
     14 C           6.0427   -4.0357    0.0000 C.3     1  UNL1        0.1152
     15 C           5.1767   -3.5357    0.0000 C.3     1  UNL1        0.1120
     16 C           6.9088   -3.5357    0.0000 C.3     1  UNL1        0.1454
     17 C           5.1767   -2.5357    0.0000 C.3     1  UNL1        0.1140
     18 C           6.9088   -2.5357    0.0000 C.3     1  UNL1        0.2310
     19 C           4.3107   -2.0357    0.0000 C.3     1  UNL1        0.0731
     20 C           7.7748   -1.0357    0.0000 C.ar    1  UNL1        0.1695
     21 C           6.9088   -0.5357    0.0000 C.ar    1  UNL1       -0.0052
     22 C           8.6408   -0.5357    0.0000 C.ar    1  UNL1        0.2010
     23 C           6.9088    0.4643    0.0000 C.ar    1  UNL1        0.0282
     24 C           8.6408    0.4643    0.0000 C.ar    1  UNL1        0.1627
     25 C           7.7748    0.9643    0.0000 C.ar    1  UNL1       -0.0055
     26 C           6.0427    0.9643    0.0000 C.ar    1  UNL1        0.1808
     27 C           5.1767    0.4643    0.0000 C.ar    1  UNL1        0.2082
     28 C           4.3107    1.9643    0.0000 C.ar    1  UNL1        0.1092
     29 C           5.1767    2.4643    0.0000 C.ar    1  UNL1        0.1465
     30 C           4.3107    0.9643    0.0000 C.ar    1  UNL1        0.2379
     31 C           3.4007    2.4712    0.0000 C.ar    1  UNL1        0.1348
     32 C           5.1928    3.5058    0.0000 C.ar    1  UNL1        0.0231
     33 C           4.2947    4.0336    0.0000 C.ar    1  UNL1        0.1239
     34 C           3.3926    3.5128    0.0000 C.ar    1  UNL1        0.0223
     35 H           5.5058   -4.3457    0.0000 H       1  UNL1        0.0648
     36 H           5.1767   -4.1557    0.0000 H       1  UNL1        0.0647
     37 H           6.9088   -4.1557    0.0000 H       1  UNL1        0.0683
     38 H           5.1767   -1.9157    0.0000 H       1  UNL1        0.0647
     39 H           6.9088   -1.9157    0.0000 H       1  UNL1        0.1084
     40 H           4.7092   -1.5607    0.0000 H       1  UNL1        0.0584
     41 H           3.9121   -1.5607    0.0000 H       1  UNL1        0.0584
     42 H           6.5797   -5.3457    0.0000 H       1  UNL1        0.2100
     43 H           4.3107   -4.6557    0.0000 H       1  UNL1        0.2100
     44 H           8.3117   -3.7257    0.0000 H       1  UNL1        0.2102
     45 H           2.9077   -2.2257    0.0000 H       1  UNL1        0.2095
     46 H           6.3718   -0.8457    0.0000 H       1  UNL1        0.0662
     47 H           7.7748    1.5843    0.0000 H       1  UNL1        0.0662
     48 H          10.0438   -0.7257    0.0000 H       1  UNL1        0.2924
     49 H           5.7332    3.8096    0.0000 H       1  UNL1        0.0691
     50 H           9.5068    1.5843    0.0000 H       1  UNL1        0.2923
     51 H           2.8545    3.8207    0.0000 H       1  UNL1        0.0691
     52 H           4.6398   -0.8457    0.0000 H       1  UNL1        0.2924
     53 H           2.0000    2.2650    0.0000 H       1  UNL1        0.2922
     54 H           3.7628    5.3457    0.0000 H       1  UNL1        0.2921
@<TRIPOS>BOND
     1     1    17    1
     2     1    18    1
     3    18     2    1
     4     2    20    1
     5    14     3    1
     6     3    42    1
     7    15     4    1
     8     4    43    1
     9    16     5    1
    10     5    44    1
    11     6    19    1
    12     6    45    1
    13     7    26   ar
    14     7    29   ar
    15     8    22    1
    16     8    48    1
    17     9    24    1
    18     9    50    1
    19    10    27    1
    20    10    52    1
    21    11    30    2
    22    12    31    1
    23    12    53    1
    24    13    33    1
    25    13    54    1
    26    14    15    1
    27    14    16    1
    28    14    35    1
    29    15    17    1
    30    15    36    1
    31    16    18    1
    32    16    37    1
    33    17    19    1
    34    17    38    1
    35    18    39    1
    36    19    40    1
    37    19    41    1
    38    20    21   ar
    39    20    22   ar
    40    21    23   ar
    41    21    46    1
    42    22    24   ar
    43    23    25   ar
    44    23    26    1
    45    24    25   ar
    46    25    47    1
    47    26    27   ar
    48    27    30   ar
    49    28    29   ar
    50    28    30   ar
    51    28    31   ar
    52    29    32   ar
    53    31    34   ar
    54    32    33   ar
    55    32    49    1
    56    33    34   ar
    57    34    51    1
