@<TRIPOS>MOLECULE
IMPHY015541
 40 41 0 0 0
SMALL
GASTEIGER

@<TRIPOS>ATOM
      1 O           6.3961   -0.6830    0.0000 O.3     1  UNL1       -0.3635
      2 C           4.6641   -0.6830    0.0000 C.3     1  UNL1       -0.0057
      3 C           4.6641    0.3170    0.0000 C.3     1  UNL1       -0.0143
      4 C           5.5301   -1.1830    0.0000 C.3     1  UNL1        0.0684
      5 C           5.5301    0.8170    0.0000 C.3     1  UNL1       -0.0137
      6 C           6.3961    0.3170    0.0000 C.3     1  UNL1        0.0858
      7 C           3.7702   -1.2177    0.0000 C.3     1  UNL1       -0.0434
      8 C           3.7702    0.8516    0.0000 C.2     1  UNL1       -0.0815
      9 C           2.8641   -0.7038    0.0000 C.3     1  UNL1       -0.0316
     10 C           6.0301   -2.0490    0.0000 C.3     1  UNL1       -0.0358
     11 C           5.0301   -2.0490    0.0000 C.3     1  UNL1       -0.0358
     12 C           2.8641    0.3378    0.0000 C.2     1  UNL1       -0.0762
     13 C           7.3962    0.3170    0.0000 C.3     1  UNL1       -0.0322
     14 C           6.8962    1.1830    0.0000 C.2     1  UNL1       -0.0599
     15 C           2.0000    0.8411    0.0000 C.3     1  UNL1       -0.0438
     16 C           6.3961    2.0490    0.0000 C.2     1  UNL1       -0.1000
     17 H           4.6706   -1.5330    0.0000 H       1  UNL1        0.0334
     18 H           4.6706    1.1670    0.0000 H       1  UNL1        0.0348
     19 H           5.9286    1.2919    0.0000 H       1  UNL1        0.0302
     20 H           5.1316    1.2919    0.0000 H       1  UNL1        0.0302
     21 H           3.3765   -1.6967    0.0000 H       1  UNL1        0.0272
     22 H           4.1748   -1.6875    0.0000 H       1  UNL1        0.0272
     23 H           3.7773    1.4716    0.0000 H       1  UNL1        0.0574
     24 H           2.2532   -0.5977    0.0000 H       1  UNL1        0.0310
     25 H           2.6550   -1.2875    0.0000 H       1  UNL1        0.0310
     26 H           5.4932   -2.3590    0.0000 H       1  UNL1        0.0257
     27 H           6.3401   -2.5860    0.0000 H       1  UNL1        0.0257
     28 H           6.5671   -1.7390    0.0000 H       1  UNL1        0.0257
     29 H           4.4932   -1.7390    0.0000 H       1  UNL1        0.0257
     30 H           4.7201   -2.5860    0.0000 H       1  UNL1        0.0257
     31 H           5.5671   -2.3590    0.0000 H       1  UNL1        0.0257
     32 H           7.3962   -0.3030    0.0000 H       1  UNL1        0.0260
     33 H           8.0162    0.3170    0.0000 H       1  UNL1        0.0260
     34 H           7.3962    0.9370    0.0000 H       1  UNL1        0.0260
     35 H           7.5162    1.1830    0.0000 H       1  UNL1        0.0594
     36 H           2.3121    1.3769    0.0000 H       1  UNL1        0.0274
     37 H           1.4643    1.1532    0.0000 H       1  UNL1        0.0274
     38 H           1.6879    0.3054    0.0000 H       1  UNL1        0.0274
     39 H           6.7062    2.5860    0.0000 H       1  UNL1        0.0533
     40 H           5.7762    2.0490    0.0000 H       1  UNL1        0.0533
@<TRIPOS>BOND
     1     1     4    1
     2     1     6    1
     3     2     3    1
     4     2     4    1
     5     2     7    1
     6     2    17    1
     7     3     5    1
     8     3     8    1
     9     3    18    1
    10     4    10    1
    11     4    11    1
    12     5     6    1
    13     5    19    1
    14     5    20    1
    15     6    13    1
    16     6    14    1
    17     7     9    1
    18     7    21    1
    19     7    22    1
    20     8    12    2
    21     8    23    1
    22     9    12    1
    23     9    24    1
    24     9    25    1
    25    10    26    1
    26    10    27    1
    27    10    28    1
    28    11    29    1
    29    11    30    1
    30    11    31    1
    31    12    15    1
    32    13    32    1
    33    13    33    1
    34    13    34    1
    35    14    16    2
    36    14    35    1
    37    15    36    1
    38    15    37    1
    39    15    38    1
    40    16    39    1
    41    16    40    1
