@<TRIPOS>MOLECULE
IMPHY008983
 23 27 0 0 0
SMALL
GASTEIGER

@<TRIPOS>ATOM
      1 O           7.8847   -0.9349    0.0000 O.3     1  UNL1       -0.2204
      2 N           3.5763   -1.7366    0.0000 N.3     1  UNL1       -0.2736
      3 N           5.0274    1.1113    0.0000 N.pl3   1  UNL1       -0.3339
      4 C           4.5274   -0.4276    0.0000 C.3     1  UNL1        0.0513
      5 C           4.5274   -1.4276    0.0000 C.3     1  UNL1        0.0628
      6 C           5.3364    0.1602    0.0000 C.3     1  UNL1        0.0765
      7 C           6.4112   -1.2838    0.0000 C.3     1  UNL1        0.0068
      8 C           6.2944   -0.2487    0.0000 C.3     1  UNL1        0.0513
      9 C           5.5685   -1.8960    0.0000 C.3     1  UNL1        0.0165
     10 C           3.5763   -0.1185    0.0000 C.3     1  UNL1        0.0243
     11 C           5.4320   -1.0888    0.0000 C.3     1  UNL1        0.0162
     12 C           2.9885   -0.9276    0.0000 C.3     1  UNL1        0.0725
     13 C           4.4461   -1.2463    0.0000 C.3     1  UNL1        0.0720
     14 C           3.7183    0.1602    0.0000 C.ar    1  UNL1       -0.0068
     15 C           4.0274    1.1113    0.0000 C.ar    1  UNL1        0.0406
     16 C           7.2876   -0.1327    0.0000 C.3     1  UNL1        0.1837
     17 C           5.7919   -0.1558    0.0000 C.3     1  UNL1        0.0014
     18 C           2.7029   -0.0720    0.0000 C.ar    1  UNL1       -0.0030
     19 C           3.3424    1.8960    0.0000 C.ar    1  UNL1        0.0140
     20 C           6.5701    0.4722    0.0000 C.3     1  UNL1        0.0000
     21 C           2.0000    0.6967    0.0000 C.ar    1  UNL1       -0.0002
     22 C           2.3219    1.6873    0.0000 C.ar    1  UNL1        0.0012
     23 H           5.3918    1.6129    0.0000 H       1  UNL1        0.1468
@<TRIPOS>BOND
     1     1    16    1
     2     2     5    1
     3     2    12    1
     4     2    13    1
     5     3     6    1
     6     3    15    1
     7     3    23    1
     8     4     5    1
     9     4     6    1
    10     4    10    1
    11     4    14    1
    12     5     9    1
    13     6     8    1
    14     7     8    1
    15     7     9    1
    16     7    11    1
    17     8    16    1
    18    10    12    1
    19    11    13    1
    20    11    17    1
    21    14    15   ar
    22    14    18   ar
    23    15    19   ar
    24    17    20    1
    25    18    21   ar
    26    19    22   ar
    27    21    22   ar
