@<TRIPOS>MOLECULE
IMPHY009771
 47 49 0 0 0
SMALL
GASTEIGER

@<TRIPOS>ATOM
      1 O           4.9654   -0.5307    0.0000 O.3     1  UNL1       -0.4579
      2 O           6.6384   -0.9789    0.0000 O.2     1  UNL1       -0.2511
      3 C           4.1484   -0.5808    0.0000 C.3     1  UNL1        0.0028
      4 C           3.1636   -0.4071    0.0000 C.3     1  UNL1       -0.0294
      5 C           2.9844   -1.3994    0.0000 C.3     1  UNL1       -0.0313
      6 C           5.2242    0.4353    0.0000 C.3     1  UNL1        0.1171
      7 C           3.9774   -1.5744    0.0000 C.3     1  UNL1       -0.0409
      8 C           5.4830    1.4012    0.0000 C.3     1  UNL1       -0.0284
      9 C           4.7464    2.3838    0.0000 C.3     1  UNL1       -0.0071
     10 C           2.8216    0.5326    0.0000 C.3     1  UNL1       -0.0489
     11 C           3.4644    1.2986    0.0000 C.3     1  UNL1       -0.0472
     12 C           6.4959   -0.3594    0.0000 C.3     1  UNL1       -0.0125
     13 C           6.9147    1.2035    0.0000 C.3     1  UNL1       -0.0474
     14 C           7.2730    0.2700    0.0000 C.3     1  UNL1       -0.0489
     15 C           2.8088   -2.3838    0.0000 C.3     1  UNL1       -0.0595
     16 C           2.0000   -1.2237    0.0000 C.3     1  UNL1       -0.0595
     17 C           5.7419    2.3671    0.0000 C.3     1  UNL1       -0.0594
     18 C           5.6725   -1.2378    0.0000 C.2     1  UNL1        0.3045
     19 C           5.4137   -2.2037    0.0000 C.3     1  UNL1        0.0333
     20 H           4.6948   -1.2319    0.0000 H       1  UNL1        0.0342
     21 H           2.3265   -0.2595    0.0000 H       1  UNL1        0.0310
     22 H           3.8706   -2.1852    0.0000 H       1  UNL1        0.0275
     23 H           4.5883   -1.6804    0.0000 H       1  UNL1        0.0275
     24 H           5.0642    2.9162    0.0000 H       1  UNL1        0.0309
     25 H           4.1333    2.4758    0.0000 H       1  UNL1        0.0309
     26 H           2.4231    1.0075    0.0000 H       1  UNL1        0.0268
     27 H           2.2847    0.2226    0.0000 H       1  UNL1        0.0268
     28 H           3.5869    1.9064    0.0000 H       1  UNL1        0.0271
     29 H           2.9057    1.5674    0.0000 H       1  UNL1        0.0271
     30 H           6.1114   -0.8457    0.0000 H       1  UNL1        0.0304
     31 H           6.9369   -0.7952    0.0000 H       1  UNL1        0.0304
     32 H           7.5225    1.3259    0.0000 H       1  UNL1        0.0271
     33 H           6.8956    1.8232    0.0000 H       1  UNL1        0.0271
     34 H           7.6107   -0.2500    0.0000 H       1  UNL1        0.0267
     35 H           7.8255    0.5514    0.0000 H       1  UNL1        0.0267
     36 H           2.1089   -0.6133    0.0000 H       1  UNL1        0.0235
     37 H           1.3896   -1.1148    0.0000 H       1  UNL1        0.0235
     38 H           1.8911   -1.8340    0.0000 H       1  UNL1        0.0235
     39 H           2.1984   -2.2749    0.0000 H       1  UNL1        0.0235
     40 H           2.6999   -2.9942    0.0000 H       1  UNL1        0.0235
     41 H           3.4191   -2.4927    0.0000 H       1  UNL1        0.0235
     42 H           6.3407    2.2067    0.0000 H       1  UNL1        0.0235
     43 H           5.9023    2.9660    0.0000 H       1  UNL1        0.0235
     44 H           5.1430    2.5276    0.0000 H       1  UNL1        0.0235
     45 H           4.8148   -2.0432    0.0000 H       1  UNL1        0.0342
     46 H           5.2532   -2.8026    0.0000 H       1  UNL1        0.0342
     47 H           6.0126   -2.3642    0.0000 H       1  UNL1        0.0342
@<TRIPOS>BOND
     1     6     1    1
     2     1    18    1
     3     2    18    2
     4     3     4    1
     5     3     6    1
     6     3     7    1
     7     3    20    1
     8     4     5    1
     9     4    10    1
    10     4    21    1
    11     5     7    1
    12     5    15    1
    13     5    16    1
    14     6     9    1
    15     6    12    1
    16     7    22    1
    17     7    23    1
    18     8     9    1
    19     8    11    1
    20     8    13    1
    21     8    17    1
    22     9    24    1
    23     9    25    1
    24    10    11    1
    25    10    26    1
    26    10    27    1
    27    11    28    1
    28    11    29    1
    29    12    14    1
    30    12    30    1
    31    12    31    1
    32    13    14    1
    33    13    32    1
    34    13    33    1
    35    14    34    1
    36    14    35    1
    37    15    39    1
    38    15    40    1
    39    15    41    1
    40    16    36    1
    41    16    37    1
    42    16    38    1
    43    17    42    1
    44    17    43    1
    45    17    44    1
    46    18    19    1
    47    19    45    1
    48    19    46    1
    49    19    47    1
