@<TRIPOS>MOLECULE
IMPHY007498
 160 172 0 0 0
SMALL
GASTEIGER

@<TRIPOS>ATOM
      1 O          12.9475   -3.9547    0.0000 O.3     1  UNL1       -0.3281
      2 O          15.3881   -5.9491    0.0000 O.3     1  UNL1       -0.4500
      3 O          13.8295   -6.4962    0.0000 O.3     1  UNL1       -0.4512
      4 O          15.4109   -2.9981    0.0000 O.3     1  UNL1       -0.4476
      5 O          13.8416   -2.4269    0.0000 O.3     1  UNL1       -0.4274
      6 O           9.5044    5.1222    0.0000 O.3     1  UNL1       -0.3375
      7 O          11.8387   -6.4621    0.0000 O.3     1  UNL1       -0.4584
      8 O           6.8585    5.6087    0.0000 O.3     1  UNL1       -0.4524
      9 O           8.6262    2.5530    0.0000 O.3     1  UNL1       -0.4500
     10 O           6.8524    3.5772    0.0000 O.3     1  UNL1       -0.3842
     11 O          10.3922    3.5908    0.0000 O.3     1  UNL1       -0.3641
     12 O           7.8702    7.3237    0.0000 O.3     1  UNL1       -0.4584
     13 O          16.4554   -7.3369    0.0000 O.2     1  UNL1       -0.2449
     14 O          12.8092   -8.1765    0.0000 O.2     1  UNL1       -0.2449
     15 O          16.4994   -1.6269    0.0000 O.2     1  UNL1       -0.2449
     16 O          12.1096   -2.4336    0.0000 O.2     1  UNL1       -0.2447
     17 O          12.8387   -6.4621    0.0000 O.2     1  UNL1       -0.2449
     18 O           6.8999    7.2985    0.0000 O.2     1  UNL1       -0.2449
     19 O          11.2378   -0.9370    0.0000 O.3     1  UNL1       -0.4476
     20 O          20.4537   -4.9605    0.0000 O.3     1  UNL1       -0.5028
     21 O          20.4606   -4.0646    0.0000 O.3     1  UNL1       -0.5028
     22 O          10.3583    2.5597    0.0000 O.2     1  UNL1       -0.2449
     23 O          13.3355  -10.8304    0.0000 O.3     1  UNL1       -0.5028
     24 O          19.6332   -8.1920    0.0000 O.3     1  UNL1       -0.5032
     25 O          19.6901   -0.8209    0.0000 O.3     1  UNL1       -0.5032
     26 O          20.9596   -6.4202    0.0000 O.3     1  UNL1       -0.5009
     27 O          12.3418  -10.8304    0.0000 O.3     1  UNL1       -0.5028
     28 O           6.3770    6.4461    0.0000 O.2     1  UNL1       -0.2449
     29 O          20.9890   -2.6130    0.0000 O.3     1  UNL1       -0.5009
     30 O          16.4079   -9.0723    0.0000 O.3     1  UNL1       -0.5032
     31 O          15.3838  -10.8462    0.0000 O.3     1  UNL1       -0.5009
     32 O          10.2936  -10.8462    0.0000 O.3     1  UNL1       -0.5009
     33 O           9.2694   -9.0723    0.0000 O.3     1  UNL1       -0.5032
     34 O           3.3321    8.1765    0.0000 O.3     1  UNL1       -0.5028
     35 O          11.2301    1.0630    0.0000 O.3     1  UNL1       -0.5008
     36 O           3.8223    9.0409    0.0000 O.3     1  UNL1       -0.5028
     37 O          14.6942    1.0764    0.0000 O.3     1  UNL1       -0.5032
     38 O           3.3457    4.6367    0.0000 O.3     1  UNL1       -0.5032
     39 O           2.3079    6.4026    0.0000 O.3     1  UNL1       -0.5009
     40 O          12.9583    2.0697    0.0000 O.3     1  UNL1       -0.5008
     41 O           9.5096   -1.9436    0.0000 O.3     1  UNL1       -0.5009
     42 O           7.7737   -0.9503    0.0000 O.3     1  UNL1       -0.5032
     43 O           4.8190   10.8304    0.0000 O.3     1  UNL1       -0.5009
     44 O           6.8672   10.8462    0.0000 O.3     1  UNL1       -0.5032
     45 C          14.7395   -4.9893    0.0000 C.3     1  UNL1        0.1851
     46 C          13.8295   -5.4962    0.0000 C.3     1  UNL1        0.1730
     47 C          14.7476   -3.9477    0.0000 C.3     1  UNL1        0.2053
     48 C          12.9635   -4.9962    0.0000 C.3     1  UNL1        0.1371
     49 C          13.8455   -3.4269    0.0000 C.3     1  UNL1        0.2465
     50 C          12.0975   -5.4962    0.0000 C.3     1  UNL1        0.1226
     51 C           7.7284    5.1154    0.0000 C.3     1  UNL1        0.1619
     52 C           7.7203    4.0738    0.0000 C.3     1  UNL1        0.1362
     53 C           8.5905    5.6221    0.0000 C.3     1  UNL1        0.1351
     54 C           8.6224    3.5530    0.0000 C.3     1  UNL1        0.1828
     55 C           9.5204    4.0807    0.0000 C.3     1  UNL1        0.1970
     56 C           8.5828    6.6220    0.0000 C.3     1  UNL1        0.1225
     57 C          16.4795   -6.3372    0.0000 C.2     1  UNL1        0.3405
     58 C          13.3387   -7.3281    0.0000 C.2     1  UNL1        0.3405
     59 C          16.5081   -2.6269    0.0000 C.2     1  UNL1        0.3406
     60 C          17.5884   -6.0023    0.0000 C.ar    1  UNL1        0.0740
     61 C          17.6118   -2.9788    0.0000 C.ar    1  UNL1        0.0740
     62 C          12.9737   -1.9303    0.0000 C.2     1  UNL1        0.3453
     63 C          13.8387   -8.1942    0.0000 C.ar    1  UNL1        0.0740
     64 C          18.2826   -5.0750    0.0000 C.ar    1  UNL1        0.0458
     65 C          18.2916   -3.9167    0.0000 C.ar    1  UNL1        0.0458
     66 C          12.3387   -7.3281    0.0000 C.2     1  UNL1        0.3401
     67 C          13.3387   -9.0602    0.0000 C.ar    1  UNL1        0.0458
     68 C           6.3770    6.4461    0.0000 C.2     1  UNL1        0.3404
     69 C          11.8387   -8.1942    0.0000 C.ar    1  UNL1        0.0740
     70 C          12.3387   -9.0602    0.0000 C.ar    1  UNL1        0.0458
     71 C          12.9698   -0.9303    0.0000 C.ar    1  UNL1        0.1085
     72 C           9.4942    2.0563    0.0000 C.2     1  UNL1        0.3399
     73 C          18.0462   -7.1187    0.0000 C.ar    1  UNL1       -0.0017
     74 C          18.0867   -1.8696    0.0000 C.ar    1  UNL1       -0.0017
     75 C          19.4828   -5.1998    0.0000 C.ar    1  UNL1        0.1708
     76 C          14.8802   -8.1781    0.0000 C.ar    1  UNL1       -0.0017
     77 C          19.4935   -3.8104    0.0000 C.ar    1  UNL1        0.1708
     78 C           5.3770    6.4384    0.0000 C.ar    1  UNL1        0.0740
     79 C          13.8455   -9.9702    0.0000 C.ar    1  UNL1        0.1708
     80 C           6.8703    7.3160    0.0000 C.2     1  UNL1        0.3401
     81 C           4.8703    7.3005    0.0000 C.ar    1  UNL1        0.0458
     82 C          19.2432   -7.2712    0.0000 C.ar    1  UNL1        0.1628
     83 C           9.4980    1.0563    0.0000 C.ar    1  UNL1        0.0662
     84 C          19.2858   -1.7356    0.0000 C.ar    1  UNL1        0.1628
     85 C          19.9663   -6.3053    0.0000 C.ar    1  UNL1        0.2012
     86 C          11.8318   -9.9702    0.0000 C.ar    1  UNL1        0.1708
     87 C          12.1019   -0.4336    0.0000 C.ar    1  UNL1        0.1876
     88 C          10.7972   -8.1781    0.0000 C.ar    1  UNL1       -0.0017
     89 C           6.3636    8.1781    0.0000 C.ar    1  UNL1        0.0740
     90 C          19.9940   -2.7125    0.0000 C.ar    1  UNL1        0.2012
     91 C           5.3636    8.1704    0.0000 C.ar    1  UNL1        0.0458
     92 C          15.4079   -9.0762    0.0000 C.ar    1  UNL1        0.1628
     93 C          14.8871   -9.9782    0.0000 C.ar    1  UNL1        0.2012
     94 C          13.8339   -0.4270    0.0000 C.ar    1  UNL1        0.0013
     95 C           4.8772    5.5245    0.0000 C.ar    1  UNL1       -0.0017
     96 C          10.7902   -9.9782    0.0000 C.ar    1  UNL1        0.2012
     97 C          10.2694   -9.0762    0.0000 C.ar    1  UNL1        0.1628
     98 C           3.8287    7.3086    0.0000 C.ar    1  UNL1        0.1708
     99 C          10.3660    0.5597    0.0000 C.ar    1  UNL1       -0.0015
    100 C          12.0980    0.5664    0.0000 C.ar    1  UNL1        0.2060
    101 C          10.3699   -0.4403    0.0000 C.ar    1  UNL1        0.1743
    102 C           4.8221    9.0602    0.0000 C.ar    1  UNL1        0.1708
    103 C           8.6340    0.5530    0.0000 C.ar    1  UNL1       -0.0023
    104 C           6.8914    9.0762    0.0000 C.ar    1  UNL1       -0.0017
    105 C          13.8301    0.5730    0.0000 C.ar    1  UNL1        0.1630
    106 C           3.8357    5.5085    0.0000 C.ar    1  UNL1        0.1628
    107 C           3.3079    6.4065    0.0000 C.ar    1  UNL1        0.2012
    108 C          12.9621    1.0697    0.0000 C.ar    1  UNL1        0.2044
    109 C           9.5058   -0.9436    0.0000 C.ar    1  UNL1        0.2015
    110 C           8.6378   -0.4470    0.0000 C.ar    1  UNL1        0.1628
    111 C           5.3290    9.9702    0.0000 C.ar    1  UNL1        0.2012
    112 C           6.3706    9.9782    0.0000 C.ar    1  UNL1        0.1628
    113 H          14.5423   -5.8161    0.0000 H       1  UNL1        0.0813
    114 H          14.5624   -5.9268    0.0000 H       1  UNL1        0.0801
    115 H          14.5631   -3.1180    0.0000 H       1  UNL1        0.0837
    116 H          12.2241   -4.5769    0.0000 H       1  UNL1        0.0670
    117 H          13.3068   -3.1200    0.0000 H       1  UNL1        0.1098
    118 H          11.9370   -4.8973    0.0000 H       1  UNL1        0.0725
    119 H          11.4775   -5.4962    0.0000 H       1  UNL1        0.0725
    120 H           6.9922    4.6904    0.0000 H       1  UNL1        0.0789
    121 H           7.7191    3.4538    0.0000 H       1  UNL1        0.0670
    122 H           9.3200    6.0584    0.0000 H       1  UNL1        0.0669
    123 H           8.0861    3.2420    0.0000 H       1  UNL1        0.0813
    124 H           9.5264    3.4608    0.0000 H       1  UNL1        0.0947
    125 H           9.1829    6.4662    0.0000 H       1  UNL1        0.0725
    126 H           8.8886    7.1614    0.0000 H       1  UNL1        0.0725
    127 H           6.8500    2.9572    0.0000 H       1  UNL1        0.2101
    128 H          10.9255    3.9070    0.0000 H       1  UNL1        0.2126
    129 H          17.6690   -7.6107    0.0000 H       1  UNL1        0.0664
    130 H          17.7171   -1.3718    0.0000 H       1  UNL1        0.0664
    131 H          15.1839   -7.6376    0.0000 H       1  UNL1        0.0664
    132 H          10.4934   -7.6376    0.0000 H       1  UNL1        0.0664
    133 H          14.3721   -0.7349    0.0000 H       1  UNL1        0.0665
    134 H           5.1975    4.9937    0.0000 H       1  UNL1        0.0664
    135 H          10.9017    0.8718    0.0000 H       1  UNL1        0.0664
    136 H           8.0958    0.8609    0.0000 H       1  UNL1        0.0663
    137 H           7.5114    9.0738    0.0000 H       1  UNL1        0.0664
    138 H          20.8832   -5.4077    0.0000 H       1  UNL1        0.2923
    139 H          20.8969   -3.6242    0.0000 H       1  UNL1        0.2923
    140 H          13.6393  -11.3709    0.0000 H       1  UNL1        0.2923
    141 H          19.2598   -8.6869    0.0000 H       1  UNL1        0.2923
    142 H          19.3243   -0.3203    0.0000 H       1  UNL1        0.2923
    143 H          21.2059   -6.9892    0.0000 H       1  UNL1        0.2924
    144 H          12.0380  -11.3709    0.0000 H       1  UNL1        0.2923
    145 H          21.2440   -2.0478    0.0000 H       1  UNL1        0.2924
    146 H          16.7200   -9.6080    0.0000 H       1  UNL1        0.2923
    147 H          16.0038  -10.8486    0.0000 H       1  UNL1        0.2924
    148 H           9.6736  -10.8486    0.0000 H       1  UNL1        0.2924
    149 H           8.9615   -8.5342    0.0000 H       1  UNL1        0.2923
    150 H           2.7121    8.1789    0.0000 H       1  UNL1        0.2923
    151 H          11.2277    1.6830    0.0000 H       1  UNL1        0.2924
    152 H           3.5020    9.5718    0.0000 H       1  UNL1        0.2923
    153 H          15.2323    0.7684    0.0000 H       1  UNL1        0.2923
    154 H           3.6619    4.1034    0.0000 H       1  UNL1        0.2923
    155 H           2.0000    5.8645    0.0000 H       1  UNL1        0.2924
    156 H          13.4940    2.3818    0.0000 H       1  UNL1        0.2924
    157 H           8.9739   -2.2557    0.0000 H       1  UNL1        0.2924
    158 H           7.2356   -0.6424    0.0000 H       1  UNL1        0.2923
    159 H           5.1227   11.3709    0.0000 H       1  UNL1        0.2924
    160 H           7.4872   10.8486    0.0000 H       1  UNL1        0.2923
@<TRIPOS>BOND
     1     1    48    1
     2     1    49    1
     3     2    45    1
     4     2    57    1
     5     3    46    1
     6     3    58    1
     7     4    47    1
     8     4    59    1
     9    49     5    1
    10     5    62    1
    11     6    53    1
    12     6    55    1
    13     7    50    1
    14     7    66    1
    15     8    51    1
    16     8    68    1
    17    54     9    1
    18     9    72    1
    19    52    10    1
    20    10   127    1
    21    11    55    1
    22    11   128    1
    23    12    56    1
    24    12    80    1
    25    13    57    2
    26    14    58    2
    27    15    59    2
    28    16    62    2
    29    17    66    2
    30    18    68    2
    31    19    87    1
    32    19   101    1
    33    20    75    1
    34    20   138    1
    35    21    77    1
    36    21   139    1
    37    22    72    2
    38    23    79    1
    39    23   140    1
    40    24    82    1
    41    24   141    1
    42    25    84    1
    43    25   142    1
    44    26    85    1
    45    26   143    1
    46    27    86    1
    47    27   144    1
    48    28    80    2
    49    29    90    1
    50    29   145    1
    51    30    92    1
    52    30   146    1
    53    31    93    1
    54    31   147    1
    55    32    96    1
    56    32   148    1
    57    33    97    1
    58    33   149    1
    59    34    98    1
    60    34   150    1
    61    35   100    1
    62    35   151    1
    63    36   102    1
    64    36   152    1
    65    37   105    1
    66    37   153    1
    67    38   106    1
    68    38   154    1
    69    39   107    1
    70    39   155    1
    71    40   108    1
    72    40   156    1
    73    41   109    1
    74    41   157    1
    75    42   110    1
    76    42   158    1
    77    43   111    1
    78    43   159    1
    79    44   112    1
    80    44   160    1
    81    45    46    1
    82    45    47    1
    83    45   113    1
    84    46    48    1
    85    46   114    1
    86    47    49    1
    87    47   115    1
    88    48    50    1
    89    48   116    1
    90    49   117    1
    91    50   118    1
    92    50   119    1
    93    51    52    1
    94    51    53    1
    95    51   120    1
    96    52    54    1
    97    52   121    1
    98    53    56    1
    99    53   122    1
   100    54    55    1
   101    54   123    1
   102    55   124    1
   103    56   125    1
   104    56   126    1
   105    57    60    1
   106    58    63    1
   107    59    61    1
   108    60    64   ar
   109    60    73   ar
   110    61    65   ar
   111    61    74   ar
   112    62    71    1
   113    63    67   ar
   114    63    76   ar
   115    64    65    1
   116    64    75   ar
   117    65    77   ar
   118    66    69    1
   119    67    70    1
   120    67    79   ar
   121    68    78    1
   122    69    70   ar
   123    69    88   ar
   124    70    86   ar
   125    71    87   ar
   126    71    94   ar
   127    72    83    1
   128    73    82   ar
   129    73   129    1
   130    74    84   ar
   131    74   130    1
   132    75    85   ar
   133    76    92   ar
   134    76   131    1
   135    77    90   ar
   136    78    81   ar
   137    78    95   ar
   138    79    93   ar
   139    80    89    1
   140    81    91    1
   141    81    98   ar
   142    82    85   ar
   143    83    99   ar
   144    83   103   ar
   145    84    90   ar
   146    86    96   ar
   147    87   100   ar
   148    88    97   ar
   149    88   132    1
   150    89    91   ar
   151    89   104   ar
   152    91   102   ar
   153    92    93   ar
   154    94   105   ar
   155    94   133    1
   156    95   106   ar
   157    95   134    1
   158    96    97   ar
   159    98   107   ar
   160    99   101   ar
   161    99   135    1
   162   100   108   ar
   163   101   109   ar
   164   102   111   ar
   165   103   110   ar
   166   103   136    1
   167   104   112   ar
   168   104   137    1
   169   105   108   ar
   170   106   107   ar
   171   109   110   ar
   172   111   112   ar
