@<TRIPOS>MOLECULE
IMPHY009948
 19 19 0 0 0
SMALL
GASTEIGER

@<TRIPOS>ATOM
      1 O           2.0000    1.0950    0.0000 O.3     1  UNL1       -0.3762
      2 O           3.7320    2.0950    0.0000 O.3     1  UNL1       -0.4786
      3 O           4.5981    0.5950    0.0000 O.2     1  UNL1       -0.2477
      4 C           2.8660   -0.4050    0.0000 C.ar    1  UNL1       -0.0084
      5 C           2.8660    0.5950    0.0000 C.3     1  UNL1        0.1766
      6 C           2.0000   -0.9050    0.0000 C.ar    1  UNL1       -0.0556
      7 C           3.7320   -0.9050    0.0000 C.ar    1  UNL1       -0.0556
      8 C           2.0000   -1.9050    0.0000 C.ar    1  UNL1       -0.0614
      9 C           3.7320   -1.9050    0.0000 C.ar    1  UNL1       -0.0614
     10 C           2.8660   -2.4050    0.0000 C.ar    1  UNL1       -0.0617
     11 C           3.7320    1.0950    0.0000 C.2     1  UNL1        0.3382
     12 H           2.8660    1.2150    0.0000 H       1  UNL1        0.0761
     13 H           1.4631   -0.5950    0.0000 H       1  UNL1        0.0621
     14 H           4.2690   -0.5950    0.0000 H       1  UNL1        0.0621
     15 H           1.4631   -2.2150    0.0000 H       1  UNL1        0.0618
     16 H           4.2690   -2.2150    0.0000 H       1  UNL1        0.0618
     17 H           2.8660   -3.0250    0.0000 H       1  UNL1        0.0618
     18 H           2.0000    1.7150    0.0000 H       1  UNL1        0.2110
     19 H           4.2690    2.4050    0.0000 H       1  UNL1        0.2951
@<TRIPOS>BOND
     1     1     5    1
     2     1    18    1
     3     2    11    1
     4     2    19    1
     5     3    11    2
     6     4     5    1
     7     4     6   ar
     8     4     7   ar
     9     5    11    1
    10     5    12    1
    11     6     8   ar
    12     6    13    1
    13     7     9   ar
    14     7    14    1
    15     8    10   ar
    16     8    15    1
    17     9    10   ar
    18     9    16    1
    19    10    17    1
