@<TRIPOS>MOLECULE
IMPHY016472
 32 32 0 0 0
SMALL
GASTEIGER

@<TRIPOS>ATOM
      1 O           4.2690    2.5950    0.0000 O.3     1  UNL1       -0.3918
      2 C           4.2690    1.5950    0.0000 C.3     1  UNL1        0.0553
      3 C           5.1350    1.0950    0.0000 C.3     1  UNL1       -0.0268
      4 C           5.1350    0.0950    0.0000 C.3     1  UNL1       -0.0504
      5 C           3.4030    1.0950    0.0000 C.3     1  UNL1       -0.0266
      6 C           4.2690   -0.4050    0.0000 C.3     1  UNL1       -0.0493
      7 C           3.4030    0.0950    0.0000 C.3     1  UNL1       -0.0473
      8 C           4.2690   -1.4050    0.0000 C.3     1  UNL1       -0.0320
      9 C           2.5369   -0.4050    0.0000 C.3     1  UNL1       -0.0344
     10 C           3.4030   -1.9050    0.0000 C.2     1  UNL1       -0.0765
     11 C           2.5369   -1.4050    0.0000 C.2     1  UNL1       -0.0850
     12 C           3.4030   -2.9050    0.0000 C.3     1  UNL1       -0.0438
     13 H           4.8059    1.9050    0.0000 H       1  UNL1        0.0593
     14 H           5.7456    0.9873    0.0000 H       1  UNL1        0.0290
     15 H           5.3471    1.6776    0.0000 H       1  UNL1        0.0290
     16 H           5.3471   -0.4876    0.0000 H       1  UNL1        0.0266
     17 H           5.7456    0.2027    0.0000 H       1  UNL1        0.0266
     18 H           3.1909    1.6776    0.0000 H       1  UNL1        0.0290
     19 H           2.7924    0.9873    0.0000 H       1  UNL1        0.0290
     20 H           4.0569    0.1776    0.0000 H       1  UNL1        0.0268
     21 H           3.6584   -0.5127    0.0000 H       1  UNL1        0.0268
     22 H           3.6150   -0.4876    0.0000 H       1  UNL1        0.0269
     23 H           4.0135    0.2027    0.0000 H       1  UNL1        0.0269
     24 H           4.4810   -1.9876    0.0000 H       1  UNL1        0.0310
     25 H           4.8796   -1.2973    0.0000 H       1  UNL1        0.0310
     26 H           2.3249    0.1776    0.0000 H       1  UNL1        0.0307
     27 H           1.9264   -0.5127    0.0000 H       1  UNL1        0.0307
     28 H           2.0000   -1.7150    0.0000 H       1  UNL1        0.0572
     29 H           4.8059    2.9050    0.0000 H       1  UNL1        0.2098
     30 H           2.7830   -2.9050    0.0000 H       1  UNL1        0.0274
     31 H           3.4030   -3.5250    0.0000 H       1  UNL1        0.0274
     32 H           4.0230   -2.9050    0.0000 H       1  UNL1        0.0274
@<TRIPOS>BOND
     1     1     2    1
     2     1    29    1
     3     2     3    1
     4     2     5    1
     5     2    13    1
     6     3     4    1
     7     3    14    1
     8     3    15    1
     9     4     6    1
    10     4    16    1
    11     4    17    1
    12     5     7    1
    13     5    18    1
    14     5    19    1
    15     6     8    1
    16     6    20    1
    17     6    21    1
    18     7     9    1
    19     7    22    1
    20     7    23    1
    21     8    10    1
    22     8    24    1
    23     8    25    1
    24     9    11    1
    25     9    26    1
    26     9    27    1
    27    10    11    2
    28    10    12    1
    29    11    28    1
    30    12    30    1
    31    12    31    1
    32    12    32    1
