@<TRIPOS>MOLECULE
IMPHY013804
 38 37 0 0 0
SMALL
GASTEIGER

@<TRIPOS>ATOM
      1 O           8.9282    0.2500    0.0000 O.3     1  UNL1       -0.4645
      2 O           9.7942   -1.2500    0.0000 O.2     1  UNL1       -0.2506
      3 C           5.4641    0.2500    0.0000 C.3     1  UNL1       -0.0530
      4 C           4.5981   -0.2500    0.0000 C.3     1  UNL1       -0.0531
      5 C           6.3301   -0.2500    0.0000 C.3     1  UNL1       -0.0500
      6 C           3.7320    0.2500    0.0000 C.3     1  UNL1       -0.0533
      7 C           7.1962    0.2500    0.0000 C.3     1  UNL1       -0.0185
      8 C           2.8660   -0.2500    0.0000 C.3     1  UNL1       -0.0559
      9 C           8.0622   -0.2500    0.0000 C.3     1  UNL1        0.0925
     10 C           2.0000    0.2500    0.0000 C.3     1  UNL1       -0.0653
     11 C          10.6603    0.2500    0.0000 C.3     1  UNL1        0.0508
     12 C           9.7942   -0.2500    0.0000 C.2     1  UNL1        0.3097
     13 C          11.5263   -0.2500    0.0000 C.3     1  UNL1       -0.0525
     14 C          10.6603    1.2500    0.0000 C.3     1  UNL1       -0.0525
     15 H           5.8626    0.7249    0.0000 H       1  UNL1        0.0265
     16 H           5.0656    0.7249    0.0000 H       1  UNL1        0.0265
     17 H           4.1996   -0.7249    0.0000 H       1  UNL1        0.0265
     18 H           4.9966   -0.7249    0.0000 H       1  UNL1        0.0265
     19 H           5.9316   -0.7249    0.0000 H       1  UNL1        0.0266
     20 H           6.7287   -0.7249    0.0000 H       1  UNL1        0.0266
     21 H           4.1306    0.7249    0.0000 H       1  UNL1        0.0265
     22 H           3.3335    0.7249    0.0000 H       1  UNL1        0.0265
     23 H           7.5947    0.7249    0.0000 H       1  UNL1        0.0298
     24 H           6.7976    0.7249    0.0000 H       1  UNL1        0.0298
     25 H           2.4675   -0.7249    0.0000 H       1  UNL1        0.0263
     26 H           3.2646   -0.7249    0.0000 H       1  UNL1        0.0263
     27 H           7.6636   -0.7249    0.0000 H       1  UNL1        0.0697
     28 H           8.4607   -0.7249    0.0000 H       1  UNL1        0.0697
     29 H           2.3100    0.7869    0.0000 H       1  UNL1        0.0230
     30 H           1.4631    0.5600    0.0000 H       1  UNL1        0.0230
     31 H           1.6900   -0.2869    0.0000 H       1  UNL1        0.0230
     32 H          11.1972    0.5600    0.0000 H       1  UNL1        0.0408
     33 H          11.2163   -0.7869    0.0000 H       1  UNL1        0.0237
     34 H          12.0632   -0.5600    0.0000 H       1  UNL1        0.0237
     35 H          11.8363    0.2869    0.0000 H       1  UNL1        0.0237
     36 H          11.2803    1.2500    0.0000 H       1  UNL1        0.0237
     37 H          10.6603    1.8700    0.0000 H       1  UNL1        0.0237
     38 H          10.0403    1.2500    0.0000 H       1  UNL1        0.0237
@<TRIPOS>BOND
     1     1     9    1
     2     1    12    1
     3     2    12    2
     4     3     4    1
     5     3     5    1
     6     3    15    1
     7     3    16    1
     8     4     6    1
     9     4    17    1
    10     4    18    1
    11     5     7    1
    12     5    19    1
    13     5    20    1
    14     6     8    1
    15     6    21    1
    16     6    22    1
    17     7     9    1
    18     7    23    1
    19     7    24    1
    20     8    10    1
    21     8    25    1
    22     8    26    1
    23     9    27    1
    24     9    28    1
    25    10    29    1
    26    10    30    1
    27    10    31    1
    28    11    12    1
    29    11    13    1
    30    11    14    1
    31    11    32    1
    32    13    33    1
    33    13    34    1
    34    13    35    1
    35    14    36    1
    36    14    37    1
    37    14    38    1
