@<TRIPOS>MOLECULE
IMPHY008557
 59 62 0 0 0
SMALL
GASTEIGER

@<TRIPOS>ATOM
      1 O          10.5196   -2.4886    0.0000 O.3     1  UNL1       -0.3650
      2 O           6.0290    0.5114    0.0000 O.3     1  UNL1       -0.4826
      3 O          10.3914   -0.9881    0.0000 O.3     1  UNL1       -0.5065
      4 O           6.0174    3.5806    0.0000 O.2     1  UNL1       -0.2917
      5 O           4.2690    3.5460    0.0000 O.3     1  UNL1       -0.5058
      6 O           2.5369    0.5460    0.0000 O.3     1  UNL1       -0.5062
      7 C          10.0162   -3.3527    0.0000 C.3     1  UNL1        0.0907
      8 C           9.5196   -2.4848    0.0000 C.3     1  UNL1        0.0919
      9 C           8.6555   -1.9814    0.0000 C.3     1  UNL1        0.0049
     10 C          10.8803   -3.8560    0.0000 C.3     1  UNL1       -0.0336
     11 C           9.1483   -3.8494    0.0000 C.3     1  UNL1       -0.0336
     12 C           8.6594   -0.9814    0.0000 C.ar    1  UNL1       -0.0030
     13 C           7.7953   -0.4781    0.0000 C.ar    1  UNL1       -0.0483
     14 C           9.5273   -0.4848    0.0000 C.ar    1  UNL1        0.1201
     15 C           7.7991    0.5219    0.0000 C.ar    1  UNL1       -0.0065
     16 C           6.9350    1.0252    0.0000 C.3     1  UNL1        0.1322
     17 C           6.9350    2.0669    0.0000 C.3     1  UNL1        0.0520
     18 C           9.5312    0.5152    0.0000 C.ar    1  UNL1       -0.0195
     19 C           8.6671    1.0186    0.0000 C.ar    1  UNL1       -0.0516
     20 C           5.1350    1.0460    0.0000 C.ar    1  UNL1        0.1423
     21 C           6.0290    2.5807    0.0000 C.2     1  UNL1        0.1740
     22 C           5.1350    2.0460    0.0000 C.ar    1  UNL1        0.1009
     23 C           4.2690    0.5460    0.0000 C.ar    1  UNL1        0.0403
     24 C           4.2690    2.5460    0.0000 C.ar    1  UNL1        0.1343
     25 C           4.2690   -0.4540    0.0000 C.3     1  UNL1       -0.0023
     26 C           3.4030    1.0460    0.0000 C.ar    1  UNL1        0.1273
     27 C           3.4030    2.0460    0.0000 C.ar    1  UNL1        0.0225
     28 C           3.4030   -0.9540    0.0000 C.2     1  UNL1       -0.0807
     29 C           3.4030   -1.9540    0.0000 C.2     1  UNL1       -0.0793
     30 C           2.5369   -2.4540    0.0000 C.3     1  UNL1       -0.0440
     31 C           4.2690   -2.4540    0.0000 C.3     1  UNL1       -0.0440
     32 H           9.6824   -1.8865    0.0000 H       1  UNL1        0.0628
     33 H           8.0453   -1.8714    0.0000 H       1  UNL1        0.0340
     34 H           8.4412   -2.5632    0.0000 H       1  UNL1        0.0340
     35 H          10.5683   -4.3918    0.0000 H       1  UNL1        0.0258
     36 H          11.4161   -4.1681    0.0000 H       1  UNL1        0.0258
     37 H          11.1924   -3.3203    0.0000 H       1  UNL1        0.0258
     38 H           8.8404   -3.3112    0.0000 H       1  UNL1        0.0258
     39 H           8.6102   -4.1573    0.0000 H       1  UNL1        0.0258
     40 H           9.4562   -4.3875    0.0000 H       1  UNL1        0.0258
     41 H           7.2571   -0.7860    0.0000 H       1  UNL1        0.0625
     42 H           7.4726    1.3342    0.0000 H       1  UNL1        0.0789
     43 H           7.5459    1.9608    0.0000 H       1  UNL1        0.0385
     44 H           7.1441    2.6506    0.0000 H       1  UNL1        0.0385
     45 H          10.0693    0.8231    0.0000 H       1  UNL1        0.0654
     46 H           8.6694    1.6386    0.0000 H       1  UNL1        0.0623
     47 H          10.9295   -0.6802    0.0000 H       1  UNL1        0.2921
     48 H           4.4810   -1.0366    0.0000 H       1  UNL1        0.0358
     49 H           4.8796   -0.3463    0.0000 H       1  UNL1        0.0358
     50 H           2.8660    2.3560    0.0000 H       1  UNL1        0.0691
     51 H           2.8660   -0.6440    0.0000 H       1  UNL1        0.0575
     52 H           3.7320    3.8560    0.0000 H       1  UNL1        0.2922
     53 H           2.0000    0.8560    0.0000 H       1  UNL1        0.2921
     54 H           2.2269   -1.9170    0.0000 H       1  UNL1        0.0274
     55 H           2.0000   -2.7640    0.0000 H       1  UNL1        0.0274
     56 H           3.9590   -2.9909    0.0000 H       1  UNL1        0.0274
     57 H           4.8059   -2.7640    0.0000 H       1  UNL1        0.0274
     58 H           4.5790   -1.9170    0.0000 H       1  UNL1        0.0274
     59 H           2.8469   -2.9909    0.0000 H       1  UNL1        0.0274
@<TRIPOS>BOND
     1     1     7    1
     2     1     8    1
     3     2    16    1
     4     2    20    1
     5     3    14    1
     6     3    47    1
     7     4    21    2
     8     5    24    1
     9     5    52    1
    10     6    26    1
    11     6    53    1
    12     7     8    1
    13     7    10    1
    14     7    11    1
    15     8     9    1
    16     8    32    1
    17     9    12    1
    18     9    33    1
    19     9    34    1
    20    10    35    1
    21    10    36    1
    22    10    37    1
    23    11    38    1
    24    11    39    1
    25    11    40    1
    26    12    13   ar
    27    12    14   ar
    28    13    15   ar
    29    13    41    1
    30    14    18   ar
    31    15    16    1
    32    15    19   ar
    33    16    17    1
    34    16    42    1
    35    17    21    1
    36    17    43    1
    37    17    44    1
    38    18    19   ar
    39    18    45    1
    40    19    46    1
    41    20    22   ar
    42    20    23   ar
    43    21    22    1
    44    22    24   ar
    45    23    25    1
    46    23    26   ar
    47    24    27   ar
    48    25    28    1
    49    25    48    1
    50    25    49    1
    51    26    27   ar
    52    27    50    1
    53    28    29    2
    54    28    51    1
    55    29    30    1
    56    29    31    1
    57    30    54    1
    58    30    55    1
    59    30    59    1
    60    31    56    1
    61    31    57    1
    62    31    58    1
