@<TRIPOS>MOLECULE
IMPHY000320
 75 77 0 0 0
SMALL
GASTEIGER

@<TRIPOS>ATOM
      1 O           5.1350   -3.5000    0.0000 O.3     1  UNL1       -0.3404
      2 O           6.8671   -3.5000    0.0000 O.3     1  UNL1       -0.3061
      3 O           5.1350   -6.5000    0.0000 O.3     1  UNL1       -0.3864
      4 O           3.4030   -5.5000    0.0000 O.3     1  UNL1       -0.3865
      5 O           6.8671   -5.5000    0.0000 O.3     1  UNL1       -0.3841
      6 O           6.0010   -2.0000    0.0000 O.2     1  UNL1       -0.4666
      7 O           2.5369   -4.0000    0.0000 O.3     1  UNL1       -0.3924
      8 O           9.4651    1.0000    0.0000 O.3     1  UNL1       -0.4643
      9 O           5.2395    0.0924    0.0000 O.3     1  UNL1       -0.4646
     10 O          10.3312   -2.5000    0.0000 O.3     1  UNL1       -0.4606
     11 O           7.7331    1.0000    0.0000 O.2     1  UNL1       -0.2508
     12 O           6.5663    1.2057    0.0000 O.2     1  UNL1       -0.2452
     13 O          11.1972   -1.0000    0.0000 O.2     1  UNL1       -0.2512
     14 O          10.3312    6.5000    0.0000 O.3     1  UNL1       -0.5068
     15 C           5.1350   -5.5000    0.0000 C.3     1  UNL1        0.1141
     16 C           4.2690   -5.0000    0.0000 C.3     1  UNL1        0.1119
     17 C           6.0010   -5.0000    0.0000 C.3     1  UNL1        0.1343
     18 C           4.2690   -4.0000    0.0000 C.3     1  UNL1        0.1130
     19 C           6.0010   -4.0000    0.0000 C.3     1  UNL1        0.1921
     20 C           3.4030   -3.5000    0.0000 C.3     1  UNL1        0.0730
     21 C           6.8671   -2.5000    0.0000 C.3     1  UNL1        0.2267
     22 C           7.7331   -1.0000    0.0000 C.3     1  UNL1        0.0308
     23 C           7.7331   -2.0000    0.0000 C.2     1  UNL1        0.0053
     24 C           6.8671   -0.5000    0.0000 C.2     1  UNL1        0.0785
     25 C           8.5991   -0.5000    0.0000 C.3     1  UNL1        0.0559
     26 C           8.5991   -2.5000    0.0000 C.2     1  UNL1       -0.0413
     27 C           6.0010   -1.0000    0.0000 C.2     1  UNL1        0.0988
     28 C           8.5991    0.5000    0.0000 C.2     1  UNL1        0.3080
     29 C           6.2243    0.2660    0.0000 C.2     1  UNL1        0.3384
     30 C           9.4651   -2.0000    0.0000 C.3     1  UNL1        0.1111
     31 C           9.4651    2.0000    0.0000 C.3     1  UNL1        0.0964
     32 C          10.3312    2.5000    0.0000 C.3     1  UNL1        0.0067
     33 C           4.5967    0.8584    0.0000 C.3     1  UNL1        0.0820
     34 C          11.1972   -2.0000    0.0000 C.2     1  UNL1        0.3042
     35 C          10.3312    3.5000    0.0000 C.ar    1  UNL1       -0.0439
     36 C          12.0632   -2.5000    0.0000 C.3     1  UNL1        0.0332
     37 C          11.1972    4.0000    0.0000 C.ar    1  UNL1       -0.0550
     38 C           9.4651    4.0000    0.0000 C.ar    1  UNL1       -0.0550
     39 C          11.1972    5.0000    0.0000 C.ar    1  UNL1       -0.0199
     40 C           9.4651    5.0000    0.0000 C.ar    1  UNL1       -0.0199
     41 C          10.3312    5.5000    0.0000 C.ar    1  UNL1        0.1169
     42 H           5.6720   -5.8100    0.0000 H       1  UNL1        0.0648
     43 H           4.2690   -5.6200    0.0000 H       1  UNL1        0.0647
     44 H           6.5380   -4.6900    0.0000 H       1  UNL1        0.0671
     45 H           4.2690   -3.3800    0.0000 H       1  UNL1        0.0647
     46 H           6.0010   -3.3800    0.0000 H       1  UNL1        0.0939
     47 H           3.8015   -3.0250    0.0000 H       1  UNL1        0.0584
     48 H           3.0044   -3.0250    0.0000 H       1  UNL1        0.0584
     49 H           7.4040   -2.8100    0.0000 H       1  UNL1        0.1109
     50 H           8.2700   -1.3100    0.0000 H       1  UNL1        0.0404
     51 H           4.5981   -6.8100    0.0000 H       1  UNL1        0.2100
     52 H           3.4030   -6.1200    0.0000 H       1  UNL1        0.2100
     53 H           6.8671   -6.1200    0.0000 H       1  UNL1        0.2101
     54 H           8.8112   -1.0826    0.0000 H       1  UNL1        0.0387
     55 H           9.2097   -0.3923    0.0000 H       1  UNL1        0.0387
     56 H           8.5991   -3.1200    0.0000 H       1  UNL1        0.0607
     57 H           5.4641   -0.6900    0.0000 H       1  UNL1        0.1030
     58 H           2.0000   -3.6900    0.0000 H       1  UNL1        0.2095
     59 H           9.8637   -1.5250    0.0000 H       1  UNL1        0.0743
     60 H           9.0666   -1.5250    0.0000 H       1  UNL1        0.0743
     61 H           9.2531    2.5826    0.0000 H       1  UNL1        0.0701
     62 H           8.8546    1.8923    0.0000 H       1  UNL1        0.0701
     63 H          10.5432    1.9174    0.0000 H       1  UNL1        0.0346
     64 H          10.9417    2.6077    0.0000 H       1  UNL1        0.0346
     65 H           5.0716    1.2570    0.0000 H       1  UNL1        0.0661
     66 H           4.1982    1.3334    0.0000 H       1  UNL1        0.0661
     67 H           4.1217    0.4599    0.0000 H       1  UNL1        0.0661
     68 H          11.7532   -3.0369    0.0000 H       1  UNL1        0.0342
     69 H          12.6002   -2.8100    0.0000 H       1  UNL1        0.0342
     70 H          12.3732   -1.9631    0.0000 H       1  UNL1        0.0342
     71 H          11.7341    3.6900    0.0000 H       1  UNL1        0.0621
     72 H           8.9282    3.6900    0.0000 H       1  UNL1        0.0621
     73 H          11.7341    5.3100    0.0000 H       1  UNL1        0.0654
     74 H           8.9282    5.3100    0.0000 H       1  UNL1        0.0654
     75 H          10.8681    6.8100    0.0000 H       1  UNL1        0.2921
@<TRIPOS>BOND
     1     1    18    1
     2     1    19    1
     3    19     2    1
     4    21     2    1
     5    15     3    1
     6     3    51    1
     7    16     4    1
     8     4    52    1
     9    17     5    1
    10     5    53    1
    11     6    21    1
    12     6    27    1
    13     7    20    1
    14     7    58    1
    15     8    28    1
    16     8    31    1
    17     9    29    1
    18     9    33    1
    19    10    30    1
    20    10    34    1
    21    11    28    2
    22    12    29    2
    23    13    34    2
    24    14    41    1
    25    14    75    1
    26    15    16    1
    27    15    17    1
    28    15    42    1
    29    16    18    1
    30    16    43    1
    31    17    19    1
    32    17    44    1
    33    18    20    1
    34    18    45    1
    35    19    46    1
    36    20    47    1
    37    20    48    1
    38    21    23    1
    39    21    49    1
    40    22    23    1
    41    22    24    1
    42    22    25    1
    43    22    50    1
    44    23    26    2
    45    24    27    2
    46    24    29    1
    47    25    28    1
    48    25    54    1
    49    25    55    1
    50    26    30    1
    51    26    56    1
    52    27    57    1
    53    30    59    1
    54    30    60    1
    55    31    32    1
    56    31    61    1
    57    31    62    1
    58    32    35    1
    59    32    63    1
    60    32    64    1
    61    33    65    1
    62    33    66    1
    63    33    67    1
    64    34    36    1
    65    35    37   ar
    66    35    38   ar
    67    36    68    1
    68    36    69    1
    69    36    70    1
    70    37    39   ar
    71    37    71    1
    72    38    40   ar
    73    38    72    1
    74    39    41   ar
    75    39    73    1
    76    40    41   ar
    77    40    74    1
