@<TRIPOS>MOLECULE
IMPHY007953
 181 190 0 0 0
SMALL
GASTEIGER

@<TRIPOS>ATOM
      1 O          11.1384    0.2657    0.0000 O.3     1  UNL1       -0.3448
      2 O          10.2549    3.5827    0.0000 O.3     1  UNL1       -0.3944
      3 O           3.9791    6.4243    0.0000 O.3     1  UNL1       -0.4802
      4 O           5.7110    6.4443    0.0000 O.2     1  UNL1       -0.2504
      5 O          12.0044    1.7657    0.0000 O.3     1  UNL1       -0.3460
      6 O          12.8705   -0.7343    0.0000 O.3     1  UNL1       -0.3377
      7 O          14.6025    0.2657    0.0000 O.3     1  UNL1       -0.3400
      8 O          14.6025    2.2657    0.0000 O.3     1  UNL1       -0.3405
      9 O          11.1384   -0.7343    0.0000 O.3     1  UNL1       -0.3431
     10 O          15.4685    1.7657    0.0000 O.3     1  UNL1       -0.3405
     11 O          12.8705   -2.7343    0.0000 O.3     1  UNL1       -0.3378
     12 O          15.4685    3.7657    0.0000 O.3     1  UNL1       -0.3405
     13 O          11.1384   -3.7343    0.0000 O.3     1  UNL1       -0.3864
     14 O          16.3346   -0.7343    0.0000 O.3     1  UNL1       -0.3841
     15 O           9.4064   -2.7343    0.0000 O.3     1  UNL1       -0.3866
     16 O          12.8705    3.2657    0.0000 O.3     1  UNL1       -0.3841
     17 O          18.0666    0.2657    0.0000 O.3     1  UNL1       -0.3864
     18 O          18.0666    2.2657    0.0000 O.3     1  UNL1       -0.3865
     19 O          12.8705    5.2657    0.0000 O.3     1  UNL1       -0.3864
     20 O          12.0044   -4.2343    0.0000 O.3     1  UNL1       -0.3431
     21 O          14.6025    6.2657    0.0000 O.3     1  UNL1       -0.3865
     22 O          17.2006    3.7657    0.0000 O.3     1  UNL1       -0.3924
     23 O          14.6025   -3.7343    0.0000 O.3     1  UNL1       -0.3841
     24 O          16.3346    6.2657    0.0000 O.3     1  UNL1       -0.3924
     25 O          14.6025   -5.7343    0.0000 O.3     1  UNL1       -0.3864
     26 O          12.8705   -6.7343    0.0000 O.3     1  UNL1       -0.3866
     27 C           7.5184    3.3962    0.0000 C.3     1  UNL1       -0.0194
     28 C           7.5223    2.3962    0.0000 C.3     1  UNL1       -0.0257
     29 C           8.4183    1.8650    0.0000 C.3     1  UNL1       -0.0249
     30 C           6.6505    3.8928    0.0000 C.3     1  UNL1       -0.0051
     31 C           9.3224    2.3823    0.0000 C.3     1  UNL1       -0.0255
     32 C           8.4103    3.9343    0.0000 C.3     1  UNL1       -0.0463
     33 C          10.2682    1.8507    0.0000 C.3     1  UNL1        0.0206
     34 C           9.3184    3.4240    0.0000 C.3     1  UNL1       -0.0485
     35 C           5.7864    3.3895    0.0000 C.2     1  UNL1       -0.0629
     36 C           8.3974    0.7802    0.0000 C.3     1  UNL1       -0.0447
     37 C           6.6582    1.8929    0.0000 C.3     1  UNL1       -0.0306
     38 C           4.8745    3.8928    0.0000 C.3     1  UNL1       -0.0031
     39 C           6.6625    4.9344    0.0000 C.3     1  UNL1       -0.0424
     40 C           4.8624    4.9344    0.0000 C.3     1  UNL1        0.0741
     41 C          10.2724    0.7657    0.0000 C.3     1  UNL1        0.0695
     42 C           7.8568    4.3372    0.0000 C.3     1  UNL1       -0.0585
     43 C           5.7625    5.4587    0.0000 C.3     1  UNL1       -0.0359
     44 C           7.5503    1.3683    0.0000 C.3     1  UNL1       -0.0590
     45 C           9.3307    0.2269    0.0000 C.3     1  UNL1       -0.0254
     46 C           5.7902    2.3895    0.0000 C.2     1  UNL1       -0.0836
     47 C           7.2903    4.6614    0.0000 C.3     1  UNL1       -0.0553
     48 C           3.9498    3.3252    0.0000 C.3     1  UNL1       -0.0403
     49 C           3.9249    5.4805    0.0000 C.3     1  UNL1       -0.0362
     50 C           2.9999    3.8495    0.0000 C.3     1  UNL1       -0.0343
     51 C          10.7615    2.7206    0.0000 C.3     1  UNL1        0.0522
     52 C          11.2682    1.8584    0.0000 C.3     1  UNL1       -0.0548
     53 C           2.9873    4.9344    0.0000 C.3     1  UNL1       -0.0468
     54 C           4.8508    5.9344    0.0000 C.2     1  UNL1        0.3115
     55 C           2.0000    3.8341    0.0000 C.3     1  UNL1       -0.0598
     56 C           2.5133    2.9759    0.0000 C.3     1  UNL1       -0.0598
     57 C          12.0044    0.7657    0.0000 C.3     1  UNL1        0.1882
     58 C          12.8705    0.2657    0.0000 C.3     1  UNL1        0.1410
     59 C          13.7365    0.7657    0.0000 C.3     1  UNL1        0.1210
     60 C          13.7365    1.7657    0.0000 C.3     1  UNL1        0.1138
     61 C          12.8705    2.2657    0.0000 C.3     1  UNL1        0.0796
     62 C          12.0044   -1.2343    0.0000 C.3     1  UNL1        0.1888
     63 C          15.4685    0.7657    0.0000 C.3     1  UNL1        0.1884
     64 C          12.0044   -2.2343    0.0000 C.3     1  UNL1        0.1406
     65 C          14.6025    3.2657    0.0000 C.3     1  UNL1        0.1884
     66 C          11.1384   -2.7343    0.0000 C.3     1  UNL1        0.1143
     67 C          16.3346    0.2657    0.0000 C.3     1  UNL1        0.1341
     68 C          10.2724   -1.2343    0.0000 C.3     1  UNL1        0.0873
     69 C          10.2724   -2.2343    0.0000 C.3     1  UNL1        0.1095
     70 C          13.7365    3.7657    0.0000 C.3     1  UNL1        0.1341
     71 C          17.2006    0.7657    0.0000 C.3     1  UNL1        0.1141
     72 C          16.3346    2.2657    0.0000 C.3     1  UNL1        0.1130
     73 C          17.2006    1.7657    0.0000 C.3     1  UNL1        0.1119
     74 C          13.7365    4.7657    0.0000 C.3     1  UNL1        0.1141
     75 C          15.4685    4.7657    0.0000 C.3     1  UNL1        0.1130
     76 C           9.4064   -0.7343    0.0000 C.3     1  UNL1       -0.0361
     77 C          14.6025    5.2657    0.0000 C.3     1  UNL1        0.1119
     78 C          12.8705   -3.7343    0.0000 C.3     1  UNL1        0.1884
     79 C          16.3346    3.2657    0.0000 C.3     1  UNL1        0.0730
     80 C          13.7365   -4.2343    0.0000 C.3     1  UNL1        0.1341
     81 C          16.3346    5.2657    0.0000 C.3     1  UNL1        0.0730
     82 C          13.7365   -5.2343    0.0000 C.3     1  UNL1        0.1140
     83 C          12.0044   -5.2343    0.0000 C.3     1  UNL1        0.0873
     84 C          12.8705   -5.7343    0.0000 C.3     1  UNL1        0.1095
     85 C          11.1384   -5.7343    0.0000 C.3     1  UNL1       -0.0361
     86 H           8.2600    2.8184    0.0000 H       1  UNL1        0.0315
     87 H          10.0552    2.8130    0.0000 H       1  UNL1        0.0313
     88 H           8.8021    4.4148    0.0000 H       1  UNL1        0.0271
     89 H           8.0039    4.4025    0.0000 H       1  UNL1        0.0271
     90 H           9.9296    3.3202    0.0000 H       1  UNL1        0.0268
     91 H           9.5252    4.0084    0.0000 H       1  UNL1        0.0268
     92 H           7.7887    0.8980    0.0000 H       1  UNL1        0.0271
     93 H           8.1771    0.2006    0.0000 H       1  UNL1        0.0271
     94 H           6.2615    1.4164    0.0000 H       1  UNL1        0.0310
     95 H           7.0586    1.4195    0.0000 H       1  UNL1        0.0310
     96 H           4.8941    3.0431    0.0000 H       1  UNL1        0.0357
     97 H           7.2721    4.8213    0.0000 H       1  UNL1        0.0274
     98 H           6.8783    5.5156    0.0000 H       1  UNL1        0.0274
     99 H          10.2712    0.1457    0.0000 H       1  UNL1        0.0603
    100 H           8.4402    4.1274    0.0000 H       1  UNL1        0.0235
    101 H           8.0666    4.9206    0.0000 H       1  UNL1        0.0235
    102 H           7.2734    4.5470    0.0000 H       1  UNL1        0.0235
    103 H           6.1616    5.9331    0.0000 H       1  UNL1        0.0276
    104 H           5.3633    5.9331    0.0000 H       1  UNL1        0.0276
    105 H           7.2424    1.9065    0.0000 H       1  UNL1        0.0235
    106 H           7.0122    1.0604    0.0000 H       1  UNL1        0.0235
    107 H           7.8583    0.8302    0.0000 H       1  UNL1        0.0235
    108 H           8.9279   -0.2445    0.0000 H       1  UNL1        0.0290
    109 H           9.7261   -0.2506    0.0000 H       1  UNL1        0.0290
    110 H           5.2545    2.0775    0.0000 H       1  UNL1        0.0572
    111 H           7.7668    4.2647    0.0000 H       1  UNL1        0.0238
    112 H           7.6870    5.1378    0.0000 H       1  UNL1        0.0238
    113 H           6.8138    5.0581    0.0000 H       1  UNL1        0.0238
    114 H           3.5617    2.8417    0.0000 H       1  UNL1        0.0276
    115 H           4.3598    2.8601    0.0000 H       1  UNL1        0.0276
    116 H           4.3240    5.9550    0.0000 H       1  UNL1        0.0276
    117 H           3.5257    5.9550    0.0000 H       1  UNL1        0.0276
    118 H          11.2395    2.3257    0.0000 H       1  UNL1        0.0563
    119 H          11.2334    3.1228    0.0000 H       1  UNL1        0.0563
    120 H          11.2730    1.2385    0.0000 H       1  UNL1        0.0237
    121 H          11.8882    1.8632    0.0000 H       1  UNL1        0.0237
    122 H          11.2634    2.4784    0.0000 H       1  UNL1        0.0237
    123 H           2.7715    5.5156    0.0000 H       1  UNL1        0.0271
    124 H           2.3777    4.8213    0.0000 H       1  UNL1        0.0271
    125 H           1.9904    4.4540    0.0000 H       1  UNL1        0.0235
    126 H           1.3801    3.8245    0.0000 H       1  UNL1        0.0235
    127 H           2.0096    3.2142    0.0000 H       1  UNL1        0.0235
    128 H           1.9716    3.2775    0.0000 H       1  UNL1        0.0235
    129 H           2.2116    2.4342    0.0000 H       1  UNL1        0.0235
    130 H           3.0549    2.6742    0.0000 H       1  UNL1        0.0235
    131 H          11.4675    1.0757    0.0000 H       1  UNL1        0.0937
    132 H          10.5607    4.1220    0.0000 H       1  UNL1        0.2094
    133 H           3.9719    7.0443    0.0000 H       1  UNL1        0.2951
    134 H          13.4074   -0.0443    0.0000 H       1  UNL1        0.0675
    135 H          14.2734    1.0757    0.0000 H       1  UNL1        0.0651
    136 H          13.7365    2.3857    0.0000 H       1  UNL1        0.0647
    137 H          13.2690    2.7407    0.0000 H       1  UNL1        0.0587
    138 H          12.4719    2.7407    0.0000 H       1  UNL1        0.0587
    139 H          12.0044   -0.6143    0.0000 H       1  UNL1        0.0938
    140 H          15.4685    0.1457    0.0000 H       1  UNL1        0.0938
    141 H          12.0044   -2.8543    0.0000 H       1  UNL1        0.0675
    142 H          14.0656    2.9557    0.0000 H       1  UNL1        0.0938
    143 H          10.6015   -3.0443    0.0000 H       1  UNL1        0.0648
    144 H          16.8715   -0.0443    0.0000 H       1  UNL1        0.0671
    145 H          10.2724   -0.6143    0.0000 H       1  UNL1        0.0621
    146 H           9.7355   -1.9243    0.0000 H       1  UNL1        0.0646
    147 H          13.1996    4.0757    0.0000 H       1  UNL1        0.0671
    148 H          17.7375    1.0757    0.0000 H       1  UNL1        0.0648
    149 H          15.7976    2.5757    0.0000 H       1  UNL1        0.0647
    150 H          17.2006    2.3857    0.0000 H       1  UNL1        0.0647
    151 H          13.7365    5.3857    0.0000 H       1  UNL1        0.0648
    152 H          16.0055    4.4557    0.0000 H       1  UNL1        0.0647
    153 H           9.7164   -0.1973    0.0000 H       1  UNL1        0.0255
    154 H           8.8694   -0.4243    0.0000 H       1  UNL1        0.0255
    155 H           9.0964   -1.2712    0.0000 H       1  UNL1        0.0255
    156 H          15.1395    5.5757    0.0000 H       1  UNL1        0.0647
    157 H          13.4074   -3.4243    0.0000 H       1  UNL1        0.0938
    158 H          10.6015   -4.0443    0.0000 H       1  UNL1        0.2100
    159 H          16.8715   -1.0443    0.0000 H       1  UNL1        0.2101
    160 H           8.8694   -2.4243    0.0000 H       1  UNL1        0.2100
    161 H          16.1225    3.8484    0.0000 H       1  UNL1        0.0584
    162 H          15.7240    3.1581    0.0000 H       1  UNL1        0.0584
    163 H          12.3335    3.5757    0.0000 H       1  UNL1        0.2101
    164 H          18.6036    0.5757    0.0000 H       1  UNL1        0.2100
    165 H          14.2734   -4.5443    0.0000 H       1  UNL1        0.0671
    166 H          16.5466    4.6831    0.0000 H       1  UNL1        0.0584
    167 H          16.9452    5.3734    0.0000 H       1  UNL1        0.0584
    168 H          18.6036    1.9557    0.0000 H       1  UNL1        0.2100
    169 H          12.8705    5.8857    0.0000 H       1  UNL1        0.2100
    170 H          13.7365   -5.8543    0.0000 H       1  UNL1        0.0648
    171 H          14.0656    6.5757    0.0000 H       1  UNL1        0.2100
    172 H          11.4675   -4.9243    0.0000 H       1  UNL1        0.0621
    173 H          12.3335   -6.0443    0.0000 H       1  UNL1        0.0646
    174 H          17.2006    4.3857    0.0000 H       1  UNL1        0.2095
    175 H          15.1395   -4.0443    0.0000 H       1  UNL1        0.2101
    176 H          16.8715    6.5757    0.0000 H       1  UNL1        0.2095
    177 H          10.8284   -5.1973    0.0000 H       1  UNL1        0.0255
    178 H          10.6015   -6.0443    0.0000 H       1  UNL1        0.0255
    179 H          11.4484   -6.2712    0.0000 H       1  UNL1        0.0255
    180 H          14.6025   -6.3543    0.0000 H       1  UNL1        0.2100
    181 H          12.3335   -7.0443    0.0000 H       1  UNL1        0.2100
@<TRIPOS>BOND
     1    41     1    1
     2    57     1    1
     3     2    51    1
     4     2   132    1
     5     3    54    1
     6     3   133    1
     7     4    54    2
     8     5    57    1
     9     5    61    1
    10    58     6    1
    11    62     6    1
    12    59     7    1
    13    63     7    1
    14    60     8    1
    15    65     8    1
    16     9    62    1
    17     9    68    1
    18    10    63    1
    19    10    72    1
    20    64    11    1
    21    78    11    1
    22    12    65    1
    23    12    75    1
    24    66    13    1
    25    13   158    1
    26    67    14    1
    27    14   159    1
    28    69    15    1
    29    15   160    1
    30    70    16    1
    31    16   163    1
    32    71    17    1
    33    17   164    1
    34    73    18    1
    35    18   168    1
    36    74    19    1
    37    19   169    1
    38    20    78    1
    39    20    83    1
    40    77    21    1
    41    21   171    1
    42    22    79    1
    43    22   174    1
    44    80    23    1
    45    23   175    1
    46    24    81    1
    47    24   176    1
    48    82    25    1
    49    25   180    1
    50    84    26    1
    51    26   181    1
    52    27    28    1
    53    27    30    1
    54    27    32    1
    55    27    42    1
    56    28    29    1
    57    28    37    1
    58    28    86    1
    59    29    31    1
    60    29    36    1
    61    29    44    1
    62    30    35    1
    63    30    39    1
    64    30    47    1
    65    31    33    1
    66    31    34    1
    67    31    87    1
    68    32    34    1
    69    32    88    1
    70    32    89    1
    71    33    41    1
    72    33    51    1
    73    33    52    1
    74    34    90    1
    75    34    91    1
    76    35    38    1
    77    35    46    2
    78    36    45    1
    79    36    92    1
    80    36    93    1
    81    37    46    1
    82    37    94    1
    83    37    95    1
    84    38    40    1
    85    38    48    1
    86    38    96    1
    87    39    43    1
    88    39    97    1
    89    39    98    1
    90    40    43    1
    91    40    49    1
    92    40    54    1
    93    41    45    1
    94    41    99    1
    95    42   100    1
    96    42   101    1
    97    42   102    1
    98    43   103    1
    99    43   104    1
   100    44   105    1
   101    44   106    1
   102    44   107    1
   103    45   108    1
   104    45   109    1
   105    46   110    1
   106    47   111    1
   107    47   112    1
   108    47   113    1
   109    48    50    1
   110    48   114    1
   111    48   115    1
   112    49    53    1
   113    49   116    1
   114    49   117    1
   115    50    53    1
   116    50    55    1
   117    50    56    1
   118    51   118    1
   119    51   119    1
   120    52   120    1
   121    52   121    1
   122    52   122    1
   123    53   123    1
   124    53   124    1
   125    55   125    1
   126    55   126    1
   127    55   127    1
   128    56   128    1
   129    56   129    1
   130    56   130    1
   131    57    58    1
   132    57   131    1
   133    58    59    1
   134    58   134    1
   135    59    60    1
   136    59   135    1
   137    60    61    1
   138    60   136    1
   139    61   137    1
   140    61   138    1
   141    62    64    1
   142    62   139    1
   143    63    67    1
   144    63   140    1
   145    64    66    1
   146    64   141    1
   147    65    70    1
   148    65   142    1
   149    66    69    1
   150    66   143    1
   151    67    71    1
   152    67   144    1
   153    68    69    1
   154    68    76    1
   155    68   145    1
   156    69   146    1
   157    70    74    1
   158    70   147    1
   159    71    73    1
   160    71   148    1
   161    72    73    1
   162    72    79    1
   163    72   149    1
   164    73   150    1
   165    74    77    1
   166    74   151    1
   167    75    77    1
   168    75    81    1
   169    75   152    1
   170    76   153    1
   171    76   154    1
   172    76   155    1
   173    77   156    1
   174    78    80    1
   175    78   157    1
   176    79   161    1
   177    79   162    1
   178    80    82    1
   179    80   165    1
   180    81   166    1
   181    81   167    1
   182    82    84    1
   183    82   170    1
   184    83    84    1
   185    83    85    1
   186    83   172    1
   187    84   173    1
   188    85   177    1
   189    85   178    1
   190    85   179    1
