@<TRIPOS>MOLECULE
IMPHY007927
 78 82 0 0 0
SMALL
GASTEIGER

@<TRIPOS>ATOM
      1 O          10.5214    4.2825    0.0000 O.3     1  UNL1       -0.3886
      2 O           6.0458    3.4584    0.0000 O.3     1  UNL1       -0.3915
      3 O           6.8671   -1.2518    0.0000 O.3     1  UNL1       -0.3454
      4 O           5.1350   -1.2518    0.0000 O.3     1  UNL1       -0.3405
      5 O           6.8671   -3.2518    0.0000 O.3     1  UNL1       -0.3841
      6 O           5.1350   -4.2518    0.0000 O.3     1  UNL1       -0.3864
      7 O           3.4030   -3.2518    0.0000 O.3     1  UNL1       -0.3865
      8 O           2.5369   -1.7518    0.0000 O.3     1  UNL1       -0.3924
      9 C           8.7037    2.9035    0.0000 C.3     1  UNL1       -0.0206
     10 C           8.6921    1.9036    0.0000 C.3     1  UNL1       -0.0294
     11 C           7.7920    1.3793    0.0000 C.3     1  UNL1       -0.0207
     12 C           6.8920    1.9036    0.0000 C.3     1  UNL1       -0.0040
     13 C           9.7105    2.2850    0.0000 C.3     1  UNL1       -0.0415
     14 C          10.8884    2.3782    0.0000 C.3     1  UNL1       -0.0118
     15 C           9.4927    3.5179    0.0000 C.3     1  UNL1       -0.0180
     16 C           7.8160    3.4485    0.0000 C.3     1  UNL1       -0.0205
     17 C          10.4650    3.2841    0.0000 C.3     1  UNL1        0.0667
     18 C           9.4667    1.2711    0.0000 C.3     1  UNL1       -0.0489
     19 C           6.9040    2.9451    0.0000 C.3     1  UNL1        0.0596
     20 C           5.9421    1.3793    0.0000 C.3     1  UNL1       -0.0269
     21 C          10.4441    1.4823    0.0000 C.3     1  UNL1       -0.0473
     22 C           7.8046    0.2944    0.0000 C.3     1  UNL1       -0.0204
     23 C           8.4319    0.6108    0.0000 C.3     1  UNL1       -0.0589
     24 C           6.8671   -0.2518    0.0000 C.3     1  UNL1        0.0628
     25 C           5.9295    0.2944    0.0000 C.3     1  UNL1       -0.0210
     26 C          11.4319    3.5390    0.0000 C.3     1  UNL1       -0.0358
     27 C           4.9422    1.3947    0.0000 C.3     1  UNL1       -0.0594
     28 C           5.4555    2.2529    0.0000 C.3     1  UNL1       -0.0594
     29 C           6.0010   -1.7518    0.0000 C.3     1  UNL1        0.1882
     30 C           6.0010   -2.7518    0.0000 C.3     1  UNL1        0.1341
     31 C           5.1350   -3.2518    0.0000 C.3     1  UNL1        0.1141
     32 C           4.2690   -1.7518    0.0000 C.3     1  UNL1        0.1130
     33 C           4.2690   -2.7518    0.0000 C.3     1  UNL1        0.1119
     34 C           3.4030   -1.2518    0.0000 C.3     1  UNL1        0.0730
     35 H           8.6823    1.0536    0.0000 H       1  UNL1        0.0312
     36 H           6.1625    2.3399    0.0000 H       1  UNL1        0.0336
     37 H           9.2388    1.8826    0.0000 H       1  UNL1        0.0274
     38 H           9.9477    1.7122    0.0000 H       1  UNL1        0.0274
     39 H          11.7148    2.1795    0.0000 H       1  UNL1        0.0329
     40 H           9.7681    4.0734    0.0000 H       1  UNL1        0.0298
     41 H           9.0124    3.9100    0.0000 H       1  UNL1        0.0298
     42 H           8.2260    3.9135    0.0000 H       1  UNL1        0.0296
     43 H           7.4279    3.9320    0.0000 H       1  UNL1        0.0296
     44 H           8.9775    0.8901    0.0000 H       1  UNL1        0.0268
     45 H           9.7292    0.7094    0.0000 H       1  UNL1        0.0268
     46 H           6.3630    2.6424    0.0000 H       1  UNL1        0.0596
     47 H          10.4370    0.8624    0.0000 H       1  UNL1        0.0269
     48 H          11.0469    1.3374    0.0000 H       1  UNL1        0.0269
     49 H           8.0204   -0.2869    0.0000 H       1  UNL1        0.0296
     50 H           8.4142    0.4075    0.0000 H       1  UNL1        0.0296
     51 H           7.9554    0.2141    0.0000 H       1  UNL1        0.0235
     52 H           8.8286    0.1343    0.0000 H       1  UNL1        0.0235
     53 H           8.9084    1.0075    0.0000 H       1  UNL1        0.0235
     54 H           7.4046   -0.5607    0.0000 H       1  UNL1        0.0597
     55 H           5.3199    0.4075    0.0000 H       1  UNL1        0.0295
     56 H           5.7137   -0.2869    0.0000 H       1  UNL1        0.0295
     57 H          11.5900    2.9395    0.0000 H       1  UNL1        0.0257
     58 H          12.0315    3.6970    0.0000 H       1  UNL1        0.0257
     59 H          11.2739    4.1385    0.0000 H       1  UNL1        0.0257
     60 H           4.9518    2.0146    0.0000 H       1  UNL1        0.0235
     61 H           4.3223    1.4043    0.0000 H       1  UNL1        0.0235
     62 H           4.9326    0.7748    0.0000 H       1  UNL1        0.0235
     63 H           5.9971    2.5546    0.0000 H       1  UNL1        0.0235
     64 H           5.1538    2.7946    0.0000 H       1  UNL1        0.0235
     65 H           4.9138    1.9512    0.0000 H       1  UNL1        0.0235
     66 H          11.0749    4.5618    0.0000 H       1  UNL1        0.2102
     67 H           6.0554    4.0784    0.0000 H       1  UNL1        0.2098
     68 H           6.5380   -2.0618    0.0000 H       1  UNL1        0.0937
     69 H           6.0010   -3.3718    0.0000 H       1  UNL1        0.0671
     70 H           4.5981   -3.5618    0.0000 H       1  UNL1        0.0648
     71 H           4.2690   -1.1318    0.0000 H       1  UNL1        0.0647
     72 H           3.7320   -2.4418    0.0000 H       1  UNL1        0.0647
     73 H           6.8671   -3.8718    0.0000 H       1  UNL1        0.2101
     74 H           3.8015   -0.7768    0.0000 H       1  UNL1        0.0584
     75 H           3.0044   -0.7768    0.0000 H       1  UNL1        0.0584
     76 H           4.5981   -4.5618    0.0000 H       1  UNL1        0.2100
     77 H           3.4030   -3.8718    0.0000 H       1  UNL1        0.2100
     78 H           2.0000   -1.4418    0.0000 H       1  UNL1        0.2095
@<TRIPOS>BOND
     1    17     1    1
     2     1    66    1
     3    19     2    1
     4     2    67    1
     5    24     3    1
     6    29     3    1
     7     4    29    1
     8     4    32    1
     9    30     5    1
    10     5    73    1
    11    31     6    1
    12     6    76    1
    13    33     7    1
    14     7    77    1
    15     8    34    1
    16     8    78    1
    17     9    10    1
    18     9    13    1
    19     9    15    1
    20     9    16    1
    21    10    11    1
    22    10    18    1
    23    10    35    1
    24    11    12    1
    25    11    22    1
    26    11    23    1
    27    12    19    1
    28    12    20    1
    29    12    36    1
    30    13    14    1
    31    13    37    1
    32    13    38    1
    33    14    17    1
    34    14    21    1
    35    14    39    1
    36    15    17    1
    37    15    40    1
    38    15    41    1
    39    16    19    1
    40    16    42    1
    41    16    43    1
    42    17    26    1
    43    18    21    1
    44    18    44    1
    45    18    45    1
    46    19    46    1
    47    20    25    1
    48    20    27    1
    49    20    28    1
    50    21    47    1
    51    21    48    1
    52    22    24    1
    53    22    49    1
    54    22    50    1
    55    23    51    1
    56    23    52    1
    57    23    53    1
    58    24    25    1
    59    24    54    1
    60    25    55    1
    61    25    56    1
    62    26    57    1
    63    26    58    1
    64    26    59    1
    65    27    60    1
    66    27    61    1
    67    27    62    1
    68    28    63    1
    69    28    64    1
    70    28    65    1
    71    29    30    1
    72    29    68    1
    73    30    31    1
    74    30    69    1
    75    31    33    1
    76    31    70    1
    77    32    33    1
    78    32    34    1
    79    32    71    1
    80    33    72    1
    81    34    74    1
    82    34    75    1
