@<TRIPOS>MOLECULE
IMPHY012433
 37 38 0 0 0
SMALL
GASTEIGER

@<TRIPOS>ATOM
      1 O           5.1350   -0.2694    0.0000 O.3     1  UNL1       -0.3405
      2 O           6.8671   -0.2694    0.0000 O.3     1  UNL1       -0.3241
      3 O           5.1350   -3.2694    0.0000 O.3     1  UNL1       -0.3864
      4 O           6.8671   -2.2694    0.0000 O.3     1  UNL1       -0.3841
      5 O           3.4030   -2.2694    0.0000 O.3     1  UNL1       -0.3865
      6 O           2.5369   -0.7694    0.0000 O.3     1  UNL1       -0.3924
      7 O           6.3671    3.2694    0.0000 O.3     1  UNL1       -0.3876
      8 N           8.7692    0.1125    0.0000 N.1     1  UNL1       -0.1932
      9 C           5.1350   -2.2694    0.0000 C.3     1  UNL1        0.1141
     10 C           6.0010   -1.7694    0.0000 C.3     1  UNL1        0.1342
     11 C           4.2690   -1.7694    0.0000 C.3     1  UNL1        0.1119
     12 C           6.0010   -0.7694    0.0000 C.3     1  UNL1        0.1901
     13 C           4.2690   -0.7694    0.0000 C.3     1  UNL1        0.1130
     14 C           6.8671    0.7306    0.0000 C.3     1  UNL1        0.1788
     15 C           7.1761    1.6816    0.0000 C.3     1  UNL1        0.0231
     16 C           3.4030   -0.2694    0.0000 C.3     1  UNL1        0.0730
     17 C           6.3671    2.2694    0.0000 C.3     1  UNL1        0.0774
     18 C           5.8671    0.7306    0.0000 C.2     1  UNL1       -0.0399
     19 C           5.5580    1.6816    0.0000 C.2     1  UNL1       -0.0560
     20 C           7.8181    0.4216    0.0000 C.1     1  UNL1        0.1021
     21 H           4.5981   -2.5794    0.0000 H       1  UNL1        0.0648
     22 H           6.0010   -2.3894    0.0000 H       1  UNL1        0.0671
     23 H           4.2690   -2.3894    0.0000 H       1  UNL1        0.0647
     24 H           6.0010   -0.1494    0.0000 H       1  UNL1        0.0938
     25 H           4.2690   -0.1494    0.0000 H       1  UNL1        0.0647
     26 H           7.7425    1.4295    0.0000 H       1  UNL1        0.0335
     27 H           7.4861    2.2186    0.0000 H       1  UNL1        0.0335
     28 H           3.8015    0.2055    0.0000 H       1  UNL1        0.0584
     29 H           3.0044    0.2055    0.0000 H       1  UNL1        0.0584
     30 H           6.9195    2.5509    0.0000 H       1  UNL1        0.0639
     31 H           5.5026    0.2290    0.0000 H       1  UNL1        0.0609
     32 H           4.9684    1.8732    0.0000 H       1  UNL1        0.0596
     33 H           4.5981   -3.5794    0.0000 H       1  UNL1        0.2100
     34 H           6.8671   -2.8894    0.0000 H       1  UNL1        0.2101
     35 H           3.4030   -2.8894    0.0000 H       1  UNL1        0.2100
     36 H           2.0000   -0.4594    0.0000 H       1  UNL1        0.2095
     37 H           5.8301    3.5794    0.0000 H       1  UNL1        0.2102
@<TRIPOS>BOND
     1     1    12    1
     2     1    13    1
     3     2    12    1
     4    14     2    1
     5     3     9    1
     6     3    33    1
     7     4    10    1
     8     4    34    1
     9     5    11    1
    10     5    35    1
    11     6    16    1
    12     6    36    1
    13     7    17    1
    14     7    37    1
    15     8    20    3
    16     9    10    1
    17     9    11    1
    18     9    21    1
    19    10    12    1
    20    10    22    1
    21    11    13    1
    22    11    23    1
    23    12    24    1
    24    13    16    1
    25    13    25    1
    26    14    15    1
    27    14    18    1
    28    14    20    1
    29    15    17    1
    30    15    26    1
    31    15    27    1
    32    16    28    1
    33    16    29    1
    34    17    19    1
    35    17    30    1
    36    18    19    2
    37    18    31    1
    38    19    32    1
