@<TRIPOS>MOLECULE
IMPHY002096
 63 67 0 0 0
SMALL
GASTEIGER

@<TRIPOS>ATOM
      1 N           9.0503    2.5357    0.0000 N.3     1  UNL1       -0.3127
      2 N           2.8641   -2.1557    0.0000 N.3     1  UNL1       -0.3051
      3 C           8.2572    0.8966    0.0000 C.3     1  UNL1       -0.0094
      4 C           8.2572   -0.1034    0.0000 C.3     1  UNL1       -0.0305
      5 C           9.2034    1.2014    0.0000 C.3     1  UNL1       -0.0188
      6 C           7.3912   -0.6034    0.0000 C.3     1  UNL1       -0.0306
      7 C           6.5251   -0.1034    0.0000 C.3     1  UNL1       -0.0285
      8 C           7.3912    1.3966    0.0000 C.3     1  UNL1       -0.0454
      9 C           9.2034   -0.4081    0.0000 C.3     1  UNL1       -0.0491
     10 C           9.7870    0.3966    0.0000 C.3     1  UNL1       -0.0480
     11 C           8.1590    1.8799    0.0000 C.3     1  UNL1        0.0024
     12 C           6.5251    0.8966    0.0000 C.3     1  UNL1       -0.0486
     13 C           5.6151   -0.6102    0.0000 C.3     1  UNL1       -0.0079
     14 C           9.6975    2.0572    0.0000 C.3     1  UNL1        0.0082
     15 C           7.4072   -1.6449    0.0000 C.3     1  UNL1       -0.0311
     16 C           5.6071   -1.6518    0.0000 C.2     1  UNL1       -0.0658
     17 C           4.6883   -0.0461    0.0000 C.3     1  UNL1       -0.0422
     18 C           6.5092   -2.1726    0.0000 C.2     1  UNL1       -0.0839
     19 C           5.6228    0.3897    0.0000 C.3     1  UNL1       -0.0556
     20 C          10.6488    2.3654    0.0000 C.3     1  UNL1       -0.0494
     21 C           4.6717   -2.2016    0.0000 C.3     1  UNL1       -0.0156
     22 C           3.7404   -0.5741    0.0000 C.3     1  UNL1       -0.0363
     23 C           3.7320   -1.6590    0.0000 C.3     1  UNL1        0.0135
     24 C           2.0000   -1.6524    0.0000 C.3     1  UNL1       -0.0128
     25 C           2.8602   -3.1557    0.0000 C.3     1  UNL1       -0.0128
     26 H           8.3471   -0.9486    0.0000 H       1  UNL1        0.0309
     27 H          10.0522    1.2455    0.0000 H       1  UNL1        0.0322
     28 H           8.1305   -1.0227    0.0000 H       1  UNL1        0.0309
     29 H           7.2612    0.3216    0.0000 H       1  UNL1        0.0312
     30 H           7.7897    1.8716    0.0000 H       1  UNL1        0.0271
     31 H           6.9926    1.8716    0.0000 H       1  UNL1        0.0271
     32 H           8.9524   -0.9750    0.0000 H       1  UNL1        0.0268
     33 H           9.7408   -0.7173    0.0000 H       1  UNL1        0.0268
     34 H          10.2479   -0.0181    0.0000 H       1  UNL1        0.0269
     35 H          10.2479    0.8114    0.0000 H       1  UNL1        0.0269
     36 H           7.8859    2.4366    0.0000 H       1  UNL1        0.0430
     37 H           7.5628    1.7099    0.0000 H       1  UNL1        0.0430
     38 H           6.3131    1.4792    0.0000 H       1  UNL1        0.0268
     39 H           5.9145    0.7890    0.0000 H       1  UNL1        0.0268
     40 H           9.7973    2.6691    0.0000 H       1  UNL1        0.0460
     41 H           7.6252   -2.2253    0.0000 H       1  UNL1        0.0310
     42 H           8.0164   -1.5294    0.0000 H       1  UNL1        0.0310
     43 H           9.0519    3.1557    0.0000 H       1  UNL1        0.1222
     44 H           5.0965    0.4205    0.0000 H       1  UNL1        0.0274
     45 H           4.2984    0.4359    0.0000 H       1  UNL1        0.0274
     46 H           6.5116   -2.7926    0.0000 H       1  UNL1        0.0572
     47 H           6.2428    0.3850    0.0000 H       1  UNL1        0.0238
     48 H           5.6276    1.0097    0.0000 H       1  UNL1        0.0238
     49 H           5.0028    0.3945    0.0000 H       1  UNL1        0.0238
     50 H          10.8399    1.7755    0.0000 H       1  UNL1        0.0245
     51 H          11.2386    2.5564    0.0000 H       1  UNL1        0.0245
     52 H          10.4577    2.9552    0.0000 H       1  UNL1        0.0245
     53 H           4.2744   -2.6775    0.0000 H       1  UNL1        0.0325
     54 H           5.0726   -2.6744    0.0000 H       1  UNL1        0.0325
     55 H           3.5358    0.0112    0.0000 H       1  UNL1        0.0281
     56 H           3.1288   -0.6755    0.0000 H       1  UNL1        0.0281
     57 H           3.7308   -2.2790    0.0000 H       1  UNL1        0.0465
     58 H           2.2402   -3.1533    0.0000 H       1  UNL1        0.0391
     59 H           2.8578   -3.7757    0.0000 H       1  UNL1        0.0391
     60 H           3.4802   -3.1581    0.0000 H       1  UNL1        0.0391
     61 H           2.3121   -1.1166    0.0000 H       1  UNL1        0.0391
     62 H           1.4643   -1.3403    0.0000 H       1  UNL1        0.0391
     63 H           1.6879   -2.1881    0.0000 H       1  UNL1        0.0391
@<TRIPOS>BOND
     1     1    11    1
     2     1    14    1
     3     1    43    1
     4    23     2    1
     5     2    24    1
     6     2    25    1
     7     3     4    1
     8     3     5    1
     9     3     8    1
    10     3    11    1
    11     4     6    1
    12     4     9    1
    13     4    26    1
    14     5    10    1
    15     5    14    1
    16     5    27    1
    17     6     7    1
    18     6    15    1
    19     6    28    1
    20     7    12    1
    21     7    13    1
    22     7    29    1
    23     8    12    1
    24     8    30    1
    25     8    31    1
    26     9    10    1
    27     9    32    1
    28     9    33    1
    29    10    34    1
    30    10    35    1
    31    11    36    1
    32    11    37    1
    33    12    38    1
    34    12    39    1
    35    13    16    1
    36    13    17    1
    37    13    19    1
    38    14    20    1
    39    14    40    1
    40    15    18    1
    41    15    41    1
    42    15    42    1
    43    16    18    2
    44    16    21    1
    45    17    22    1
    46    17    44    1
    47    17    45    1
    48    18    46    1
    49    19    47    1
    50    19    48    1
    51    19    49    1
    52    20    50    1
    53    20    51    1
    54    20    52    1
    55    21    23    1
    56    21    53    1
    57    21    54    1
    58    22    23    1
    59    22    55    1
    60    22    56    1
    61    23    57    1
    62    24    61    1
    63    24    62    1
    64    24    63    1
    65    25    58    1
    66    25    59    1
    67    25    60    1
