@<TRIPOS>MOLECULE
IMPHY015036
 146 145 0 0 0
SMALL
GASTEIGER

@<TRIPOS>ATOM
      1 O          30.5788    0.7500    0.0000 O.3     1  UNL1       -0.4646
      2 O          29.7128   -0.7500    0.0000 O.2     1  UNL1       -0.2509
      3 C          15.8564    0.2500    0.0000 C.3     1  UNL1       -0.0531
      4 C          16.7224    0.7500    0.0000 C.3     1  UNL1       -0.0531
      5 C          14.9904    0.7500    0.0000 C.3     1  UNL1       -0.0531
      6 C          17.5885    0.2500    0.0000 C.3     1  UNL1       -0.0531
      7 C          14.1244    0.2500    0.0000 C.3     1  UNL1       -0.0531
      8 C          18.4545    0.7500    0.0000 C.3     1  UNL1       -0.0531
      9 C          13.2583    0.7500    0.0000 C.3     1  UNL1       -0.0531
     10 C          19.3205    0.2500    0.0000 C.3     1  UNL1       -0.0531
     11 C          12.3923    0.2500    0.0000 C.3     1  UNL1       -0.0531
     12 C          20.1865    0.7500    0.0000 C.3     1  UNL1       -0.0531
     13 C          11.5263    0.7500    0.0000 C.3     1  UNL1       -0.0531
     14 C          21.0526    0.2500    0.0000 C.3     1  UNL1       -0.0531
     15 C          10.6603    0.2500    0.0000 C.3     1  UNL1       -0.0531
     16 C          21.9186    0.7500    0.0000 C.3     1  UNL1       -0.0531
     17 C           9.7942    0.7500    0.0000 C.3     1  UNL1       -0.0531
     18 C          22.7846    0.2500    0.0000 C.3     1  UNL1       -0.0531
     19 C           8.9282    0.2500    0.0000 C.3     1  UNL1       -0.0531
     20 C          23.6506    0.7500    0.0000 C.3     1  UNL1       -0.0531
     21 C           8.0622    0.7500    0.0000 C.3     1  UNL1       -0.0531
     22 C          24.5167    0.2500    0.0000 C.3     1  UNL1       -0.0531
     23 C           7.1962    0.2500    0.0000 C.3     1  UNL1       -0.0531
     24 C          25.3827    0.7500    0.0000 C.3     1  UNL1       -0.0531
     25 C           6.3301    0.7500    0.0000 C.3     1  UNL1       -0.0531
     26 C          26.2487    0.2500    0.0000 C.3     1  UNL1       -0.0530
     27 C           5.4641    0.2500    0.0000 C.3     1  UNL1       -0.0531
     28 C          36.6410    0.2500    0.0000 C.3     1  UNL1       -0.0531
     29 C          37.5070    0.7500    0.0000 C.3     1  UNL1       -0.0531
     30 C          35.7750    0.7500    0.0000 C.3     1  UNL1       -0.0531
     31 C          38.3731    0.2500    0.0000 C.3     1  UNL1       -0.0531
     32 C          27.1147    0.7500    0.0000 C.3     1  UNL1       -0.0526
     33 C          34.9090    0.2500    0.0000 C.3     1  UNL1       -0.0531
     34 C          39.2391    0.7500    0.0000 C.3     1  UNL1       -0.0531
     35 C           4.5981    0.7500    0.0000 C.3     1  UNL1       -0.0531
     36 C          34.0429    0.7500    0.0000 C.3     1  UNL1       -0.0530
     37 C          40.1051    0.2500    0.0000 C.3     1  UNL1       -0.0531
     38 C          27.9808    0.2500    0.0000 C.3     1  UNL1       -0.0430
     39 C          33.1769    0.2500    0.0000 C.3     1  UNL1       -0.0500
     40 C          40.9711    0.7500    0.0000 C.3     1  UNL1       -0.0531
     41 C           3.7320    0.2500    0.0000 C.3     1  UNL1       -0.0533
     42 C          32.3109    0.7500    0.0000 C.3     1  UNL1       -0.0185
     43 C          41.8372    0.2500    0.0000 C.3     1  UNL1       -0.0533
     44 C          28.8468    0.7500    0.0000 C.3     1  UNL1        0.0449
     45 C           2.8660    0.7500    0.0000 C.3     1  UNL1       -0.0559
     46 C          31.4449    0.2500    0.0000 C.3     1  UNL1        0.0925
     47 C          42.7032    0.7500    0.0000 C.3     1  UNL1       -0.0559
     48 C          29.7128    0.2500    0.0000 C.2     1  UNL1        0.3071
     49 C           2.0000    0.2500    0.0000 C.3     1  UNL1       -0.0653
     50 C          43.5692    0.2500    0.0000 C.3     1  UNL1       -0.0653
     51 H          15.4579   -0.2249    0.0000 H       1  UNL1        0.0265
     52 H          16.2549   -0.2249    0.0000 H       1  UNL1        0.0265
     53 H          17.1210    1.2250    0.0000 H       1  UNL1        0.0265
     54 H          16.3239    1.2250    0.0000 H       1  UNL1        0.0265
     55 H          15.3889    1.2250    0.0000 H       1  UNL1        0.0265
     56 H          14.5919    1.2250    0.0000 H       1  UNL1        0.0265
     57 H          17.1899   -0.2249    0.0000 H       1  UNL1        0.0265
     58 H          17.9870   -0.2249    0.0000 H       1  UNL1        0.0265
     59 H          13.7258   -0.2249    0.0000 H       1  UNL1        0.0265
     60 H          14.5229   -0.2249    0.0000 H       1  UNL1        0.0265
     61 H          18.8530    1.2250    0.0000 H       1  UNL1        0.0265
     62 H          18.0560    1.2250    0.0000 H       1  UNL1        0.0265
     63 H          13.6569    1.2250    0.0000 H       1  UNL1        0.0265
     64 H          12.8598    1.2250    0.0000 H       1  UNL1        0.0265
     65 H          18.9220   -0.2249    0.0000 H       1  UNL1        0.0265
     66 H          19.7190   -0.2249    0.0000 H       1  UNL1        0.0265
     67 H          11.9938   -0.2249    0.0000 H       1  UNL1        0.0265
     68 H          12.7908   -0.2249    0.0000 H       1  UNL1        0.0265
     69 H          20.5851    1.2250    0.0000 H       1  UNL1        0.0265
     70 H          19.7880    1.2250    0.0000 H       1  UNL1        0.0265
     71 H          11.9248    1.2250    0.0000 H       1  UNL1        0.0265
     72 H          11.1278    1.2250    0.0000 H       1  UNL1        0.0265
     73 H          20.6540   -0.2249    0.0000 H       1  UNL1        0.0265
     74 H          21.4511   -0.2249    0.0000 H       1  UNL1        0.0265
     75 H          10.2617   -0.2249    0.0000 H       1  UNL1        0.0265
     76 H          11.0588   -0.2249    0.0000 H       1  UNL1        0.0265
     77 H          22.3171    1.2250    0.0000 H       1  UNL1        0.0265
     78 H          21.5201    1.2250    0.0000 H       1  UNL1        0.0265
     79 H          10.1928    1.2250    0.0000 H       1  UNL1        0.0265
     80 H           9.3957    1.2250    0.0000 H       1  UNL1        0.0265
     81 H          22.3861   -0.2249    0.0000 H       1  UNL1        0.0265
     82 H          23.1831   -0.2249    0.0000 H       1  UNL1        0.0265
     83 H           8.5297   -0.2249    0.0000 H       1  UNL1        0.0265
     84 H           9.3267   -0.2249    0.0000 H       1  UNL1        0.0265
     85 H          24.0492    1.2250    0.0000 H       1  UNL1        0.0265
     86 H          23.2521    1.2250    0.0000 H       1  UNL1        0.0265
     87 H           8.4607    1.2250    0.0000 H       1  UNL1        0.0265
     88 H           7.6636    1.2250    0.0000 H       1  UNL1        0.0265
     89 H          24.1181   -0.2249    0.0000 H       1  UNL1        0.0265
     90 H          24.9152   -0.2249    0.0000 H       1  UNL1        0.0265
     91 H           6.7976   -0.2249    0.0000 H       1  UNL1        0.0265
     92 H           7.5947   -0.2249    0.0000 H       1  UNL1        0.0265
     93 H          25.7812    1.2250    0.0000 H       1  UNL1        0.0265
     94 H          24.9842    1.2250    0.0000 H       1  UNL1        0.0265
     95 H           6.7287    1.2250    0.0000 H       1  UNL1        0.0265
     96 H           5.9316    1.2250    0.0000 H       1  UNL1        0.0265
     97 H          25.8502   -0.2249    0.0000 H       1  UNL1        0.0265
     98 H          26.6472   -0.2249    0.0000 H       1  UNL1        0.0265
     99 H           5.0656   -0.2249    0.0000 H       1  UNL1        0.0265
    100 H           5.8626   -0.2249    0.0000 H       1  UNL1        0.0265
    101 H          36.2425   -0.2249    0.0000 H       1  UNL1        0.0265
    102 H          37.0395   -0.2249    0.0000 H       1  UNL1        0.0265
    103 H          37.9056    1.2250    0.0000 H       1  UNL1        0.0265
    104 H          37.1085    1.2250    0.0000 H       1  UNL1        0.0265
    105 H          36.1735    1.2250    0.0000 H       1  UNL1        0.0265
    106 H          35.3765    1.2250    0.0000 H       1  UNL1        0.0265
    107 H          37.9745   -0.2249    0.0000 H       1  UNL1        0.0265
    108 H          38.7716   -0.2249    0.0000 H       1  UNL1        0.0265
    109 H          34.5104   -0.2249    0.0000 H       1  UNL1        0.0265
    110 H          35.3075   -0.2249    0.0000 H       1  UNL1        0.0265
    111 H          27.5133    1.2250    0.0000 H       1  UNL1        0.0265
    112 H          26.7162    1.2250    0.0000 H       1  UNL1        0.0265
    113 H          39.6376    1.2250    0.0000 H       1  UNL1        0.0265
    114 H          38.8406    1.2250    0.0000 H       1  UNL1        0.0265
    115 H           4.9966    1.2250    0.0000 H       1  UNL1        0.0265
    116 H           4.1996    1.2250    0.0000 H       1  UNL1        0.0265
    117 H          34.4415    1.2250    0.0000 H       1  UNL1        0.0265
    118 H          33.6444    1.2250    0.0000 H       1  UNL1        0.0265
    119 H          39.7066   -0.2249    0.0000 H       1  UNL1        0.0265
    120 H          40.5036   -0.2249    0.0000 H       1  UNL1        0.0265
    121 H          27.5822   -0.2249    0.0000 H       1  UNL1        0.0270
    122 H          28.3793   -0.2249    0.0000 H       1  UNL1        0.0270
    123 H          32.7784   -0.2249    0.0000 H       1  UNL1        0.0266
    124 H          33.5754   -0.2249    0.0000 H       1  UNL1        0.0266
    125 H          41.3697    1.2250    0.0000 H       1  UNL1        0.0265
    126 H          40.5726    1.2250    0.0000 H       1  UNL1        0.0265
    127 H           3.3335   -0.2249    0.0000 H       1  UNL1        0.0265
    128 H           4.1306   -0.2249    0.0000 H       1  UNL1        0.0265
    129 H          32.7094    1.2250    0.0000 H       1  UNL1        0.0298
    130 H          31.9124    1.2250    0.0000 H       1  UNL1        0.0298
    131 H          41.4386   -0.2249    0.0000 H       1  UNL1        0.0265
    132 H          42.2357   -0.2249    0.0000 H       1  UNL1        0.0265
    133 H          29.2453    1.2250    0.0000 H       1  UNL1        0.0377
    134 H          28.4483    1.2250    0.0000 H       1  UNL1        0.0377
    135 H           3.2646    1.2250    0.0000 H       1  UNL1        0.0263
    136 H           2.4675    1.2250    0.0000 H       1  UNL1        0.0263
    137 H          31.0463   -0.2249    0.0000 H       1  UNL1        0.0697
    138 H          31.8434   -0.2249    0.0000 H       1  UNL1        0.0697
    139 H          43.1017    1.2250    0.0000 H       1  UNL1        0.0263
    140 H          42.3047    1.2250    0.0000 H       1  UNL1        0.0263
    141 H           1.6900    0.7869    0.0000 H       1  UNL1        0.0230
    142 H           1.4631   -0.0600    0.0000 H       1  UNL1        0.0230
    143 H           2.3100   -0.2869    0.0000 H       1  UNL1        0.0230
    144 H          43.2592   -0.2869    0.0000 H       1  UNL1        0.0230
    145 H          44.1062   -0.0600    0.0000 H       1  UNL1        0.0230
    146 H          43.8792    0.7869    0.0000 H       1  UNL1        0.0230
@<TRIPOS>BOND
     1     1    46    1
     2     1    48    1
     3     2    48    2
     4     3     4    1
     5     3     5    1
     6     3    51    1
     7     3    52    1
     8     4     6    1
     9     4    53    1
    10     4    54    1
    11     5     7    1
    12     5    55    1
    13     5    56    1
    14     6     8    1
    15     6    57    1
    16     6    58    1
    17     7     9    1
    18     7    59    1
    19     7    60    1
    20     8    10    1
    21     8    61    1
    22     8    62    1
    23     9    11    1
    24     9    63    1
    25     9    64    1
    26    10    12    1
    27    10    65    1
    28    10    66    1
    29    11    13    1
    30    11    67    1
    31    11    68    1
    32    12    14    1
    33    12    69    1
    34    12    70    1
    35    13    15    1
    36    13    71    1
    37    13    72    1
    38    14    16    1
    39    14    73    1
    40    14    74    1
    41    15    17    1
    42    15    75    1
    43    15    76    1
    44    16    18    1
    45    16    77    1
    46    16    78    1
    47    17    19    1
    48    17    79    1
    49    17    80    1
    50    18    20    1
    51    18    81    1
    52    18    82    1
    53    19    21    1
    54    19    83    1
    55    19    84    1
    56    20    22    1
    57    20    85    1
    58    20    86    1
    59    21    23    1
    60    21    87    1
    61    21    88    1
    62    22    24    1
    63    22    89    1
    64    22    90    1
    65    23    25    1
    66    23    91    1
    67    23    92    1
    68    24    26    1
    69    24    93    1
    70    24    94    1
    71    25    27    1
    72    25    95    1
    73    25    96    1
    74    26    32    1
    75    26    97    1
    76    26    98    1
    77    27    35    1
    78    27    99    1
    79    27   100    1
    80    28    29    1
    81    28    30    1
    82    28   101    1
    83    28   102    1
    84    29    31    1
    85    29   103    1
    86    29   104    1
    87    30    33    1
    88    30   105    1
    89    30   106    1
    90    31    34    1
    91    31   107    1
    92    31   108    1
    93    32    38    1
    94    32   111    1
    95    32   112    1
    96    33    36    1
    97    33   109    1
    98    33   110    1
    99    34    37    1
   100    34   113    1
   101    34   114    1
   102    35    41    1
   103    35   115    1
   104    35   116    1
   105    36    39    1
   106    36   117    1
   107    36   118    1
   108    37    40    1
   109    37   119    1
   110    37   120    1
   111    38    44    1
   112    38   121    1
   113    38   122    1
   114    39    42    1
   115    39   123    1
   116    39   124    1
   117    40    43    1
   118    40   125    1
   119    40   126    1
   120    41    45    1
   121    41   127    1
   122    41   128    1
   123    42    46    1
   124    42   129    1
   125    42   130    1
   126    43    47    1
   127    43   131    1
   128    43   132    1
   129    44    48    1
   130    44   133    1
   131    44   134    1
   132    45    49    1
   133    45   135    1
   134    45   136    1
   135    46   137    1
   136    46   138    1
   137    47    50    1
   138    47   139    1
   139    47   140    1
   140    49   141    1
   141    49   142    1
   142    49   143    1
   143    50   144    1
   144    50   145    1
   145    50   146    1
