@<TRIPOS>MOLECULE
IMPHY002417
 91 97 0 0 0
SMALL
GASTEIGER

@<TRIPOS>ATOM
      1 O           5.8420   -0.7929    0.0000 O.3     1  UNL1       -0.4573
      2 O           7.3595   -1.9617    0.0000 O.3     1  UNL1       -0.3790
      3 O           9.1822    1.8001    0.0000 O.3     1  UNL1       -0.3791
      4 O           5.4658    1.5486    0.0000 O.3     1  UNL1       -0.4544
      5 O           7.0570    3.1120    0.0000 O.3     1  UNL1       -0.3823
      6 O           5.0645    2.2581    0.0000 O.3     1  UNL1       -0.3767
      7 O          10.0482   -2.4350    0.0000 O.3     1  UNL1       -0.3824
      8 O           4.1578   -0.3886    0.0000 O.2     1  UNL1       -0.2511
      9 O           4.4688    0.1323    0.0000 O.2     1  UNL1       -0.2449
     10 N          10.3775   -0.0289    0.0000 N.3     1  UNL1       -0.2979
     11 C           8.4308    0.3663    0.0000 C.3     1  UNL1        0.0221
     12 C           8.4308   -0.5013    0.0000 C.3     1  UNL1        0.0043
     13 C           7.7525    0.9073    0.0000 C.3     1  UNL1       -0.0185
     14 C           9.4328    0.2603    0.0000 C.3     1  UNL1        0.0279
     15 C           6.9067   -0.8491    0.0000 C.3     1  UNL1        0.0421
     16 C           6.9067    0.7142    0.0000 C.3     1  UNL1        0.0429
     17 C           6.5303   -0.0675    0.0000 C.3     1  UNL1        0.1291
     18 C           7.7525   -1.0422    0.0000 C.3     1  UNL1        0.0703
     19 C           9.1822   -0.9350    0.0000 C.3     1  UNL1        0.0127
     20 C           9.1822    0.8001    0.0000 C.3     1  UNL1        0.0660
     21 C           7.8303    1.7713    0.0000 C.3     1  UNL1       -0.0140
     22 C           7.0326    2.1123    0.0000 C.3     1  UNL1        0.1294
     23 C           6.4617    1.4590    0.0000 C.3     1  UNL1        0.1410
     24 C           5.8854    0.2025    0.0000 C.3     1  UNL1        0.0171
     25 C          10.3775   -0.7808    0.0000 C.3     1  UNL1        0.0073
     26 C           9.9335   -0.5013    0.0000 C.3     1  UNL1       -0.0414
     27 C           5.8854    1.6870    0.0000 C.3     1  UNL1        0.0941
     28 C           9.9335    0.3663    0.0000 C.3     1  UNL1       -0.0254
     29 C           9.1822   -1.9350    0.0000 C.3     1  UNL1        0.0544
     30 C          11.1815    0.5658    0.0000 C.3     1  UNL1       -0.0036
     31 C           4.8831   -1.0769    0.0000 C.2     1  UNL1        0.3045
     32 C           7.9593   -2.7618    0.0000 C.3     1  UNL1        0.0368
     33 C          12.0985    0.1669    0.0000 C.3     1  UNL1       -0.0523
     34 C          10.0482    2.3001    0.0000 C.3     1  UNL1        0.0368
     35 C           4.5584    1.1282    0.0000 C.2     1  UNL1        0.3395
     36 C           5.1487    3.2545    0.0000 C.3     1  UNL1        0.0369
     37 C           4.6497   -2.0493    0.0000 C.3     1  UNL1        0.0333
     38 C          10.0482   -3.4350    0.0000 C.3     1  UNL1        0.0365
     39 C           3.7407    1.7039    0.0000 C.ar    1  UNL1        0.0590
     40 C           2.8333    1.2835    0.0000 C.ar    1  UNL1       -0.0478
     41 C           3.8303    2.6998    0.0000 C.ar    1  UNL1       -0.0478
     42 C           2.0156    1.8591    0.0000 C.ar    1  UNL1       -0.0610
     43 C           3.0126    3.2755    0.0000 C.ar    1  UNL1       -0.0610
     44 C           2.1052    2.8551    0.0000 C.ar    1  UNL1       -0.0617
     45 H           8.4944   -1.3489    0.0000 H       1  UNL1        0.0339
     46 H           8.5341    1.2413    0.0000 H       1  UNL1        0.0314
     47 H           9.8773    0.9848    0.0000 H       1  UNL1        0.0474
     48 H           6.3767   -1.5137    0.0000 H       1  UNL1        0.0380
     49 H           6.0576    0.6761    0.0000 H       1  UNL1        0.0379
     50 H           7.9529   -1.6289    0.0000 H       1  UNL1        0.0603
     51 H           8.6452    1.1101    0.0000 H       1  UNL1        0.0602
     52 H           8.0131    2.3638    0.0000 H       1  UNL1        0.0298
     53 H           8.4386    1.6515    0.0000 H       1  UNL1        0.0298
     54 H           6.2309    2.0344    0.0000 H       1  UNL1        0.0768
     55 H           5.7234   -0.3960    0.0000 H       1  UNL1        0.0330
     56 H           5.2708    0.2841    0.0000 H       1  UNL1        0.0330
     57 H          10.9969   -0.7543    0.0000 H       1  UNL1        0.0433
     58 H          10.4305   -1.3985    0.0000 H       1  UNL1        0.0433
     59 H          10.5441   -0.3936    0.0000 H       1  UNL1        0.0273
     60 H          10.1456   -1.0839    0.0000 H       1  UNL1        0.0273
     61 H           5.9636    2.3020    0.0000 H       1  UNL1        0.0627
     62 H          10.1456    0.9489    0.0000 H       1  UNL1        0.0290
     63 H          10.5441    0.2587    0.0000 H       1  UNL1        0.0290
     64 H           8.9701   -2.5176    0.0000 H       1  UNL1        0.0566
     65 H           8.5716   -1.8274    0.0000 H       1  UNL1        0.0566
     66 H          10.7318    0.9926    0.0000 H       1  UNL1        0.0424
     67 H          11.5238    1.0827    0.0000 H       1  UNL1        0.0424
     68 H           6.5278    3.4350    0.0000 H       1  UNL1        0.2104
     69 H           8.4554   -2.3899    0.0000 H       1  UNL1        0.0524
     70 H           8.3312   -3.2579    0.0000 H       1  UNL1        0.0524
     71 H           7.4632   -3.1337    0.0000 H       1  UNL1        0.0524
     72 H          12.3458    0.7354    0.0000 H       1  UNL1        0.0242
     73 H          12.6670   -0.0805    0.0000 H       1  UNL1        0.0242
     74 H          11.8511   -0.4017    0.0000 H       1  UNL1        0.0242
     75 H           9.7382    2.8370    0.0000 H       1  UNL1        0.0524
     76 H          10.5851    2.6101    0.0000 H       1  UNL1        0.0524
     77 H          10.3582    1.7632    0.0000 H       1  UNL1        0.0524
     78 H           4.5309    3.3067    0.0000 H       1  UNL1        0.0524
     79 H           5.2009    3.8723    0.0000 H       1  UNL1        0.0524
     80 H           5.7665    3.2024    0.0000 H       1  UNL1        0.0524
     81 H           5.2526   -2.1940    0.0000 H       1  UNL1        0.0342
     82 H           4.5050   -2.6521    0.0000 H       1  UNL1        0.0342
     83 H           4.0468   -1.9046    0.0000 H       1  UNL1        0.0342
     84 H          10.6682   -3.4350    0.0000 H       1  UNL1        0.0523
     85 H          10.0482   -4.0550    0.0000 H       1  UNL1        0.0523
     86 H           9.4282   -3.4350    0.0000 H       1  UNL1        0.0523
     87 H           2.7777    0.6660    0.0000 H       1  UNL1        0.0626
     88 H           4.3929    2.9605    0.0000 H       1  UNL1        0.0626
     89 H           1.4530    1.5985    0.0000 H       1  UNL1        0.0618
     90 H           3.0682    3.8930    0.0000 H       1  UNL1        0.0618
     91 H           1.5982    3.2120    0.0000 H       1  UNL1        0.0618
@<TRIPOS>BOND
     1    17     1    1
     2     1    31    1
     3    18     2    1
     4     2    32    1
     5    20     3    1
     6     3    34    1
     7    23     4    1
     8     4    35    1
     9    22     5    1
    10     5    68    1
    11    27     6    1
    12     6    36    1
    13     7    29    1
    14     7    38    1
    15     8    31    2
    16     9    35    2
    17    10    14    1
    18    10    25    1
    19    10    30    1
    20    11    12    1
    21    11    13    1
    22    11    14    1
    23    11    20    1
    24    12    18    1
    25    12    19    1
    26    12    45    1
    27    13    16    1
    28    13    21    1
    29    13    46    1
    30    14    15    1
    31    14    47    1
    32    15    17    1
    33    15    18    1
    34    15    48    1
    35    16    17    1
    36    16    23    1
    37    16    49    1
    38    17    24    1
    39    18    50    1
    40    19    25    1
    41    19    26    1
    42    19    29    1
    43    20    28    1
    44    20    51    1
    45    21    22    1
    46    21    52    1
    47    21    53    1
    48    22    23    1
    49    22    27    1
    50    23    54    1
    51    24    27    1
    52    24    55    1
    53    24    56    1
    54    25    57    1
    55    25    58    1
    56    26    28    1
    57    26    59    1
    58    26    60    1
    59    27    61    1
    60    28    62    1
    61    28    63    1
    62    29    64    1
    63    29    65    1
    64    30    33    1
    65    30    66    1
    66    30    67    1
    67    31    37    1
    68    32    69    1
    69    32    70    1
    70    32    71    1
    71    33    72    1
    72    33    73    1
    73    33    74    1
    74    34    75    1
    75    34    76    1
    76    34    77    1
    77    35    39    1
    78    36    78    1
    79    36    79    1
    80    36    80    1
    81    37    81    1
    82    37    82    1
    83    37    83    1
    84    38    84    1
    85    38    85    1
    86    38    86    1
    87    39    40   ar
    88    39    41   ar
    89    40    42   ar
    90    40    87    1
    91    41    43   ar
    92    41    88    1
    93    42    44   ar
    94    42    89    1
    95    43    44   ar
    96    43    90    1
    97    44    91    1
