@<TRIPOS>MOLECULE
IMPHY007891
 46 51 0 0 0
SMALL
GASTEIGER

@<TRIPOS>ATOM
      1 O           5.4110    0.2615    0.0000 O.3     1  UNL1       -0.3374
      2 O           5.7171    2.0113    0.0000 O.3     1  UNL1       -0.3632
      3 O           3.5786    2.9664    0.0000 O.3     1  UNL1       -0.4521
      4 O           8.1603   -1.5426    0.0000 O.3     1  UNL1       -0.4526
      5 O           8.1603   -3.1521    0.0000 O.3     1  UNL1       -0.4526
      6 O           2.0000    2.6528    0.0000 O.3     1  UNL1       -0.4526
      7 N           3.6820   -1.8265    0.0000 N.3     1  UNL1       -0.2956
      8 C           4.5880   -1.3127    0.0000 C.3     1  UNL1        0.0664
      9 C           4.5996   -0.3128    0.0000 C.3     1  UNL1        0.1070
     10 C           5.4820   -1.8474    0.0000 C.ar    1  UNL1       -0.0206
     11 C           3.8017    0.2801    0.0000 C.ar    1  UNL1       -0.0053
     12 C           3.6820   -2.8682    0.0000 C.3     1  UNL1        0.0033
     13 C           5.4820   -2.8474    0.0000 C.ar    1  UNL1       -0.0377
     14 C           4.5880   -3.3820    0.0000 C.3     1  UNL1       -0.0144
     15 C           4.1233    1.2270    0.0000 C.ar    1  UNL1        0.0588
     16 C           5.1173    1.2112    0.0000 C.3     1  UNL1        0.1874
     17 C           6.3480   -1.3474    0.0000 C.ar    1  UNL1       -0.0111
     18 C           2.8179   -1.3232    0.0000 C.3     1  UNL1       -0.0121
     19 C           2.8209    0.0852    0.0000 C.ar    1  UNL1       -0.0519
     20 C           3.4641    1.9790    0.0000 C.ar    1  UNL1        0.1745
     21 C           6.3480   -3.3474    0.0000 C.ar    1  UNL1       -0.0126
     22 C           7.2140   -1.8474    0.0000 C.ar    1  UNL1        0.1666
     23 C           7.2140   -2.8474    0.0000 C.ar    1  UNL1        0.1665
     24 C           2.4833    1.7841    0.0000 C.ar    1  UNL1        0.1667
     25 C           2.1617    0.8372    0.0000 C.ar    1  UNL1       -0.0158
     26 C           2.6756    3.3820    0.0000 C.3     1  UNL1        0.2332
     27 C           8.7439   -2.3474    0.0000 C.3     1  UNL1        0.2332
     28 H           3.8561   -0.8806    0.0000 H       1  UNL1        0.0541
     29 H           5.3523   -0.7077    0.0000 H       1  UNL1        0.0667
     30 H           3.0711   -2.7621    0.0000 H       1  UNL1        0.0430
     31 H           3.4729   -3.4519    0.0000 H       1  UNL1        0.0430
     32 H           4.1944   -3.8610    0.0000 H       1  UNL1        0.0326
     33 H           4.9926   -3.8518    0.0000 H       1  UNL1        0.0326
     34 H           4.8444    1.7679    0.0000 H       1  UNL1        0.0964
     35 H           6.3480   -0.7273    0.0000 H       1  UNL1        0.0659
     36 H           3.1300   -0.7875    0.0000 H       1  UNL1        0.0391
     37 H           2.2822   -1.0111    0.0000 H       1  UNL1        0.0391
     38 H           2.5058   -1.8589    0.0000 H       1  UNL1        0.0391
     39 H           2.6214   -0.5018    0.0000 H       1  UNL1        0.0622
     40 H           6.3480   -3.9674    0.0000 H       1  UNL1        0.0658
     41 H           1.5536    0.7164    0.0000 H       1  UNL1        0.0655
     42 H           6.3327    1.9372    0.0000 H       1  UNL1        0.2128
     43 H           2.9925    3.9149    0.0000 H       1  UNL1        0.1166
     44 H           2.1790    3.7532    0.0000 H       1  UNL1        0.1166
     45 H           9.2047   -2.7621    0.0000 H       1  UNL1        0.1166
     46 H           9.2047   -1.9326    0.0000 H       1  UNL1        0.1166
@<TRIPOS>BOND
     1     1     9    1
     2     1    16    1
     3    16     2    1
     4     2    42    1
     5     3    20    1
     6     3    26    1
     7     4    22    1
     8     4    27    1
     9     5    23    1
    10     5    27    1
    11     6    24    1
    12     6    26    1
    13     7     8    1
    14     7    12    1
    15     7    18    1
    16     8     9    1
    17     8    10    1
    18     8    28    1
    19     9    11    1
    20     9    29    1
    21    10    13   ar
    22    10    17   ar
    23    11    15   ar
    24    11    19   ar
    25    12    14    1
    26    12    30    1
    27    12    31    1
    28    13    14    1
    29    13    21   ar
    30    14    32    1
    31    14    33    1
    32    15    16    1
    33    15    20   ar
    34    16    34    1
    35    17    22   ar
    36    17    35    1
    37    18    36    1
    38    18    37    1
    39    18    38    1
    40    19    25   ar
    41    19    39    1
    42    20    24   ar
    43    21    23   ar
    44    21    40    1
    45    22    23   ar
    46    24    25   ar
    47    25    41    1
    48    26    43    1
    49    26    44    1
    50    27    45    1
    51    27    46    1
