@<TRIPOS>MOLECULE
IMPHY017253
 24 26 0 0 0
SMALL
GASTEIGER

@<TRIPOS>ATOM
      1 S           4.5274    1.1618    0.0000 S.2     1  UNL1       -0.0882
      2 C           5.0274   -0.3771    0.0000 C.ar    1  UNL1       -0.0031
      3 C           4.0274   -0.3771    0.0000 C.ar    1  UNL1       -0.0031
      4 C           5.3364    0.5740    0.0000 C.ar    1  UNL1        0.0207
      5 C           3.7183    0.5740    0.0000 C.ar    1  UNL1        0.0205
      6 C           5.7123   -1.1618    0.0000 C.ar    1  UNL1       -0.0527
      7 C           6.3518    0.8063    0.0000 C.ar    1  UNL1       -0.0445
      8 C           7.0547    0.0376    0.0000 C.ar    1  UNL1       -0.0494
      9 C           3.3424   -1.1618    0.0000 C.ar    1  UNL1       -0.0529
     10 C           6.7328   -0.9531    0.0000 C.ar    1  UNL1       -0.0582
     11 C           2.7029    0.8063    0.0000 C.ar    1  UNL1       -0.0474
     12 C           2.3219   -0.9531    0.0000 C.ar    1  UNL1       -0.0611
     13 C           2.0000    0.0376    0.0000 C.ar    1  UNL1       -0.0607
     14 C           8.0321    0.2492    0.0000 C.3     1  UNL1       -0.0397
     15 H           5.5139   -1.7492    0.0000 H       1  UNL1        0.0624
     16 H           6.5365    1.3981    0.0000 H       1  UNL1        0.0631
     17 H           3.5408   -1.7492    0.0000 H       1  UNL1        0.0624
     18 H           7.1459   -1.4154    0.0000 H       1  UNL1        0.0620
     19 H           2.5182    1.3981    0.0000 H       1  UNL1        0.0629
     20 H           1.9088   -1.4154    0.0000 H       1  UNL1        0.0618
     21 H           1.3940    0.1688    0.0000 H       1  UNL1        0.0618
     22 H           8.1633   -0.3567    0.0000 H       1  UNL1        0.0278
     23 H           8.6380    0.3805    0.0000 H       1  UNL1        0.0278
     24 H           7.9008    0.8552    0.0000 H       1  UNL1        0.0278
@<TRIPOS>BOND
     1     1     4   ar
     2     1     5   ar
     3     2     3   ar
     4     2     4   ar
     5     2     6   ar
     6     3     5   ar
     7     3     9   ar
     8     4     7   ar
     9     5    11   ar
    10     6    10   ar
    11     6    15    1
    12     7     8   ar
    13     7    16    1
    14     8    10   ar
    15     8    14    1
    16     9    12   ar
    17     9    17    1
    18    10    18    1
    19    11    13   ar
    20    11    19    1
    21    12    13   ar
    22    12    20    1
    23    13    21    1
    24    14    22    1
    25    14    23    1
    26    14    24    1
