@<TRIPOS>MOLECULE
IMPHY014462
 48 50 0 0 0
SMALL
GASTEIGER

@<TRIPOS>ATOM
      1 O           4.5981   -0.2500    0.0000 O.3     1  UNL1       -0.4477
      2 O           4.5981    1.7500    0.0000 O.3     1  UNL1       -0.5033
      3 O          10.6603    1.2500    0.0000 O.3     1  UNL1       -0.5033
      4 O          10.6603    3.2500    0.0000 O.3     1  UNL1       -0.5033
      5 O           6.3301   -1.2500    0.0000 O.3     1  UNL1       -0.5008
      6 O           8.0622   -1.2500    0.0000 O.3     1  UNL1       -0.4771
      7 O           6.3301   -3.2500    0.0000 O.3     1  UNL1       -0.5008
      8 O           7.1962    4.2500    0.0000 O.3     1  UNL1       -0.4771
      9 O           8.9282    0.2500    0.0000 O.2     1  UNL1       -0.2451
     10 O           4.5981   -4.2500    0.0000 O.3     1  UNL1       -0.5032
     11 O           6.3301    2.7500    0.0000 O.2     1  UNL1       -0.2451
     12 O           2.0000   -1.7500    0.0000 O.3     1  UNL1       -0.4770
     13 O           2.8660   -0.2500    0.0000 O.2     1  UNL1       -0.2450
     14 C           7.1962    1.2500    0.0000 C.ar    1  UNL1        0.0007
     15 C           8.0622    1.7500    0.0000 C.ar    1  UNL1        0.0007
     16 C           7.1962    0.2500    0.0000 C.ar    1  UNL1        0.0702
     17 C           6.3301    1.7500    0.0000 C.ar    1  UNL1       -0.0080
     18 C           5.4641    0.2500    0.0000 C.ar    1  UNL1        0.1706
     19 C           8.0622    2.7500    0.0000 C.ar    1  UNL1        0.0702
     20 C           6.3301   -0.2500    0.0000 C.ar    1  UNL1       -0.0011
     21 C           5.4641    1.2500    0.0000 C.ar    1  UNL1        0.1597
     22 C           8.9282    1.2500    0.0000 C.ar    1  UNL1       -0.0080
     23 C           4.5981   -1.2500    0.0000 C.ar    1  UNL1        0.1876
     24 C           8.9282    3.2500    0.0000 C.ar    1  UNL1       -0.0020
     25 C           9.7942    1.7500    0.0000 C.ar    1  UNL1        0.1588
     26 C           9.7942    2.7500    0.0000 C.ar    1  UNL1        0.1590
     27 C           3.7320   -1.7500    0.0000 C.ar    1  UNL1        0.1083
     28 C           8.0622   -0.2500    0.0000 C.2     1  UNL1        0.3375
     29 C           5.4641   -1.7500    0.0000 C.ar    1  UNL1        0.2060
     30 C           7.1962    3.2500    0.0000 C.2     1  UNL1        0.3375
     31 C           3.7320   -2.7500    0.0000 C.ar    1  UNL1        0.0013
     32 C           5.4641   -2.7500    0.0000 C.ar    1  UNL1        0.2044
     33 C           4.5981   -3.2500    0.0000 C.ar    1  UNL1        0.1630
     34 C           2.8660   -1.2500    0.0000 C.2     1  UNL1        0.3406
     35 H           6.3301    2.3700    0.0000 H       1  UNL1        0.0661
     36 H           6.3301   -0.8700    0.0000 H       1  UNL1        0.0664
     37 H           8.9282    0.6300    0.0000 H       1  UNL1        0.0661
     38 H           8.9282    3.8700    0.0000 H       1  UNL1        0.0663
     39 H           3.1951   -3.0600    0.0000 H       1  UNL1        0.0665
     40 H           4.5981    2.3700    0.0000 H       1  UNL1        0.2923
     41 H          11.1972    1.5600    0.0000 H       1  UNL1        0.2923
     42 H          10.6603    3.8700    0.0000 H       1  UNL1        0.2923
     43 H           6.8671   -1.5600    0.0000 H       1  UNL1        0.2924
     44 H           8.5991   -1.5600    0.0000 H       1  UNL1        0.2954
     45 H           6.3301   -3.8700    0.0000 H       1  UNL1        0.2924
     46 H           6.6592    4.5600    0.0000 H       1  UNL1        0.2954
     47 H           4.0611   -4.5600    0.0000 H       1  UNL1        0.2923
     48 H           2.0000   -2.3700    0.0000 H       1  UNL1        0.2954
@<TRIPOS>BOND
     1     1    18    1
     2     1    23    1
     3     2    21    1
     4     2    40    1
     5     3    25    1
     6     3    41    1
     7     4    26    1
     8     4    42    1
     9     5    29    1
    10     5    43    1
    11     6    28    1
    12     6    44    1
    13     7    32    1
    14     7    45    1
    15     8    30    1
    16     8    46    1
    17     9    28    2
    18    10    33    1
    19    10    47    1
    20    11    30    2
    21    12    34    1
    22    12    48    1
    23    13    34    2
    24    14    15    1
    25    14    16   ar
    26    14    17   ar
    27    15    19   ar
    28    15    22   ar
    29    16    20   ar
    30    16    28    1
    31    17    21   ar
    32    17    35    1
    33    18    20   ar
    34    18    21   ar
    35    19    24   ar
    36    19    30    1
    37    20    36    1
    38    22    25   ar
    39    22    37    1
    40    23    27   ar
    41    23    29   ar
    42    24    26   ar
    43    24    38    1
    44    25    26   ar
    45    27    31   ar
    46    27    34    1
    47    29    32   ar
    48    31    33   ar
    49    31    39    1
    50    32    33   ar
