@<TRIPOS>MOLECULE
IMPHY013185
 91 90 0 0 0
SMALL
GASTEIGER

@<TRIPOS>ATOM
      1 O           5.1350   -0.5950    0.0000 O.3     1  UNL1       -0.3917
      2 O           2.5369    0.9050    0.0000 O.3     1  UNL1       -0.3949
      3 C          15.5273    0.4050    0.0000 C.3     1  UNL1       -0.0531
      4 C          16.3933    0.9050    0.0000 C.3     1  UNL1       -0.0531
      5 C          14.6613    0.9050    0.0000 C.3     1  UNL1       -0.0531
      6 C          17.2594    0.4050    0.0000 C.3     1  UNL1       -0.0531
      7 C          13.7953    0.4050    0.0000 C.3     1  UNL1       -0.0531
      8 C          18.1254    0.9050    0.0000 C.3     1  UNL1       -0.0531
      9 C          12.9292    0.9050    0.0000 C.3     1  UNL1       -0.0531
     10 C          18.9914    0.4050    0.0000 C.3     1  UNL1       -0.0531
     11 C          12.0632    0.4050    0.0000 C.3     1  UNL1       -0.0531
     12 C          19.8574    0.9050    0.0000 C.3     1  UNL1       -0.0531
     13 C          11.1972    0.9050    0.0000 C.3     1  UNL1       -0.0531
     14 C          20.7235    0.4050    0.0000 C.3     1  UNL1       -0.0531
     15 C          10.3312    0.4050    0.0000 C.3     1  UNL1       -0.0531
     16 C          21.5895    0.9050    0.0000 C.3     1  UNL1       -0.0531
     17 C           9.4651    0.9050    0.0000 C.3     1  UNL1       -0.0531
     18 C          22.4555    0.4050    0.0000 C.3     1  UNL1       -0.0531
     19 C           8.5991    0.4050    0.0000 C.3     1  UNL1       -0.0531
     20 C          23.3215    0.9050    0.0000 C.3     1  UNL1       -0.0530
     21 C           7.7331    0.9050    0.0000 C.3     1  UNL1       -0.0530
     22 C          24.1876    0.4050    0.0000 C.3     1  UNL1       -0.0528
     23 C           6.8671    0.4050    0.0000 C.3     1  UNL1       -0.0507
     24 C          25.0536    0.9050    0.0000 C.3     1  UNL1       -0.0507
     25 C           6.0010    0.9050    0.0000 C.3     1  UNL1       -0.0268
     26 C          25.9196    0.4050    0.0000 C.3     1  UNL1       -0.0467
     27 C           5.1350    0.4050    0.0000 C.3     1  UNL1        0.0573
     28 C           4.2690    0.9050    0.0000 C.3     1  UNL1       -0.0036
     29 C          26.7856    0.9050    0.0000 C.3     1  UNL1       -0.0627
     30 C          25.9196   -0.5950    0.0000 C.3     1  UNL1       -0.0627
     31 C           3.4030    0.4050    0.0000 C.3     1  UNL1        0.0465
     32 H          15.1288   -0.0699    0.0000 H       1  UNL1        0.0265
     33 H          15.9258   -0.0699    0.0000 H       1  UNL1        0.0265
     34 H          16.7919    1.3800    0.0000 H       1  UNL1        0.0265
     35 H          15.9948    1.3800    0.0000 H       1  UNL1        0.0265
     36 H          15.0598    1.3800    0.0000 H       1  UNL1        0.0265
     37 H          14.2628    1.3800    0.0000 H       1  UNL1        0.0265
     38 H          16.8608   -0.0699    0.0000 H       1  UNL1        0.0265
     39 H          17.6579   -0.0699    0.0000 H       1  UNL1        0.0265
     40 H          13.3967   -0.0699    0.0000 H       1  UNL1        0.0265
     41 H          14.1938   -0.0699    0.0000 H       1  UNL1        0.0265
     42 H          18.5239    1.3800    0.0000 H       1  UNL1        0.0265
     43 H          17.7269    1.3800    0.0000 H       1  UNL1        0.0265
     44 H          13.3278    1.3800    0.0000 H       1  UNL1        0.0265
     45 H          12.5307    1.3800    0.0000 H       1  UNL1        0.0265
     46 H          18.5929   -0.0699    0.0000 H       1  UNL1        0.0265
     47 H          19.3899   -0.0699    0.0000 H       1  UNL1        0.0265
     48 H          11.6647   -0.0699    0.0000 H       1  UNL1        0.0265
     49 H          12.4617   -0.0699    0.0000 H       1  UNL1        0.0265
     50 H          20.2560    1.3800    0.0000 H       1  UNL1        0.0265
     51 H          19.4589    1.3800    0.0000 H       1  UNL1        0.0265
     52 H          11.5957    1.3800    0.0000 H       1  UNL1        0.0265
     53 H          10.7987    1.3800    0.0000 H       1  UNL1        0.0265
     54 H          20.3249   -0.0699    0.0000 H       1  UNL1        0.0265
     55 H          21.1220   -0.0699    0.0000 H       1  UNL1        0.0265
     56 H           9.9326   -0.0699    0.0000 H       1  UNL1        0.0265
     57 H          10.7297   -0.0699    0.0000 H       1  UNL1        0.0265
     58 H          21.9880    1.3800    0.0000 H       1  UNL1        0.0265
     59 H          21.1910    1.3800    0.0000 H       1  UNL1        0.0265
     60 H           9.8637    1.3800    0.0000 H       1  UNL1        0.0265
     61 H           9.0666    1.3800    0.0000 H       1  UNL1        0.0265
     62 H          22.0570   -0.0699    0.0000 H       1  UNL1        0.0265
     63 H          22.8540   -0.0699    0.0000 H       1  UNL1        0.0265
     64 H           8.2006   -0.0699    0.0000 H       1  UNL1        0.0265
     65 H           8.9976   -0.0699    0.0000 H       1  UNL1        0.0265
     66 H          23.7201    1.3800    0.0000 H       1  UNL1        0.0265
     67 H          22.9230    1.3800    0.0000 H       1  UNL1        0.0265
     68 H           8.1316    1.3800    0.0000 H       1  UNL1        0.0265
     69 H           7.3346    1.3800    0.0000 H       1  UNL1        0.0265
     70 H          23.7890   -0.0699    0.0000 H       1  UNL1        0.0265
     71 H          24.5861   -0.0699    0.0000 H       1  UNL1        0.0265
     72 H           6.4685   -0.0699    0.0000 H       1  UNL1        0.0266
     73 H           7.2656   -0.0699    0.0000 H       1  UNL1        0.0266
     74 H          25.4521    1.3800    0.0000 H       1  UNL1        0.0268
     75 H          24.6551    1.3800    0.0000 H       1  UNL1        0.0268
     76 H           6.3996    1.3800    0.0000 H       1  UNL1        0.0290
     77 H           5.6025    1.3800    0.0000 H       1  UNL1        0.0290
     78 H          26.4566    0.0950    0.0000 H       1  UNL1        0.0295
     79 H           5.6720    0.0950    0.0000 H       1  UNL1        0.0594
     80 H           4.6675    1.3800    0.0000 H       1  UNL1        0.0312
     81 H           3.8705    1.3800    0.0000 H       1  UNL1        0.0312
     82 H          27.0956    0.3681    0.0000 H       1  UNL1        0.0232
     83 H          27.3226    1.2150    0.0000 H       1  UNL1        0.0232
     84 H          26.4756    1.4419    0.0000 H       1  UNL1        0.0232
     85 H          25.2996   -0.5950    0.0000 H       1  UNL1        0.0232
     86 H          25.9196   -1.2150    0.0000 H       1  UNL1        0.0232
     87 H          26.5396   -0.5950    0.0000 H       1  UNL1        0.0232
     88 H           3.0044   -0.0699    0.0000 H       1  UNL1        0.0558
     89 H           3.8015   -0.0699    0.0000 H       1  UNL1        0.0558
     90 H           4.5981   -0.9050    0.0000 H       1  UNL1        0.2098
     91 H           2.0000    0.5950    0.0000 H       1  UNL1        0.2094
@<TRIPOS>BOND
     1     1    27    1
     2     1    90    1
     3     2    31    1
     4     2    91    1
     5     3     4    1
     6     3     5    1
     7     3    32    1
     8     3    33    1
     9     4     6    1
    10     4    34    1
    11     4    35    1
    12     5     7    1
    13     5    36    1
    14     5    37    1
    15     6     8    1
    16     6    38    1
    17     6    39    1
    18     7     9    1
    19     7    40    1
    20     7    41    1
    21     8    10    1
    22     8    42    1
    23     8    43    1
    24     9    11    1
    25     9    44    1
    26     9    45    1
    27    10    12    1
    28    10    46    1
    29    10    47    1
    30    11    13    1
    31    11    48    1
    32    11    49    1
    33    12    14    1
    34    12    50    1
    35    12    51    1
    36    13    15    1
    37    13    52    1
    38    13    53    1
    39    14    16    1
    40    14    54    1
    41    14    55    1
    42    15    17    1
    43    15    56    1
    44    15    57    1
    45    16    18    1
    46    16    58    1
    47    16    59    1
    48    17    19    1
    49    17    60    1
    50    17    61    1
    51    18    20    1
    52    18    62    1
    53    18    63    1
    54    19    21    1
    55    19    64    1
    56    19    65    1
    57    20    22    1
    58    20    66    1
    59    20    67    1
    60    21    23    1
    61    21    68    1
    62    21    69    1
    63    22    24    1
    64    22    70    1
    65    22    71    1
    66    23    25    1
    67    23    72    1
    68    23    73    1
    69    24    26    1
    70    24    74    1
    71    24    75    1
    72    25    27    1
    73    25    76    1
    74    25    77    1
    75    26    29    1
    76    26    30    1
    77    26    78    1
    78    27    28    1
    79    27    79    1
    80    28    31    1
    81    28    80    1
    82    28    81    1
    83    29    82    1
    84    29    83    1
    85    29    84    1
    86    30    85    1
    87    30    86    1
    88    30    87    1
    89    31    88    1
    90    31    89    1
