@<TRIPOS>MOLECULE
IMPHY000905
 36 38 0 0 0
SMALL
GASTEIGER

@<TRIPOS>ATOM
      1 O           6.0682   -0.1754    0.0000 O.2     1  UNL1       -0.1997
      2 O           7.8003    1.8246    0.0000 O.3     1  UNL1       -0.4995
      3 O           8.6663   -2.6754    0.0000 O.3     1  UNL1       -0.4913
      4 O           4.3198    2.8592    0.0000 O.3     1  UNL1       -0.5057
      5 O          10.3984    0.3246    0.0000 O.3     1  UNL1       -0.5032
      6 O           2.5381   -0.1995    0.0000 O.3     1  UNL1       -0.5063
      7 O          10.3984   -1.6754    0.0000 O.3     1  UNL1       -0.5009
      8 C           6.9343    0.3246    0.0000 C.ar    1  UNL1        0.4045
      9 C           5.2022    1.3246    0.0000 C.ar    1  UNL1        0.1241
     10 C           7.8003   -0.1754    0.0000 C.ar    1  UNL1        0.0899
     11 C           5.2022    0.3246    0.0000 C.ar    1  UNL1        0.3708
     12 C           6.9343    1.3246    0.0000 C.ar    1  UNL1        0.2238
     13 C           6.0682    1.8246    0.0000 C.ar    1  UNL1        0.0090
     14 C           4.3083    1.8593    0.0000 C.ar    1  UNL1        0.1366
     15 C           7.8003   -1.1754    0.0000 C.ar    1  UNL1        0.0002
     16 C           8.6663    0.3246    0.0000 C.ar    1  UNL1       -0.0000
     17 C           4.3083   -0.2101    0.0000 C.ar    1  UNL1        0.0847
     18 C           8.6663   -1.6754    0.0000 C.ar    1  UNL1        0.1658
     19 C           9.5323   -0.1754    0.0000 C.ar    1  UNL1        0.1628
     20 C           3.4022    0.3038    0.0000 C.ar    1  UNL1        0.1293
     21 C           3.4022    1.3454    0.0000 C.ar    1  UNL1        0.0225
     22 C           9.5323   -1.1754    0.0000 C.ar    1  UNL1        0.2008
     23 C           7.8003   -3.1754    0.0000 C.3     1  UNL1        0.0790
     24 H           6.0682    2.4446    0.0000 H       1  UNL1        0.0667
     25 H           7.2634   -1.4854    0.0000 H       1  UNL1        0.0664
     26 H           8.6663    0.9446    0.0000 H       1  UNL1        0.0664
     27 H           4.3154   -0.8300    0.0000 H       1  UNL1        0.0749
     28 H           2.8665    1.6575    0.0000 H       1  UNL1        0.0691
     29 H           7.8003    2.4446    0.0000 H       1  UNL1        0.2925
     30 H           3.7865    3.1754    0.0000 H       1  UNL1        0.2922
     31 H          10.3984    0.9446    0.0000 H       1  UNL1        0.2923
     32 H           2.0000    0.1084    0.0000 H       1  UNL1        0.2921
     33 H          10.3984   -2.2954    0.0000 H       1  UNL1        0.2924
     34 H           7.4903   -2.6385    0.0000 H       1  UNL1        0.0660
     35 H           7.2634   -3.4854    0.0000 H       1  UNL1        0.0660
     36 H           8.1103   -3.7123    0.0000 H       1  UNL1        0.0660
@<TRIPOS>UNITY_ATOM_ATTR
1 1
charge 1
@<TRIPOS>BOND
     1     1     8   ar
     2     1    11   ar
     3     2    12    1
     4     2    29    1
     5     3    18    1
     6     3    23    1
     7     4    14    1
     8     4    30    1
     9     5    19    1
    10     5    31    1
    11     6    20    1
    12     6    32    1
    13     7    22    1
    14     7    33    1
    15     8    10    1
    16     8    12   ar
    17     9    11   ar
    18     9    13   ar
    19     9    14   ar
    20    10    15   ar
    21    10    16   ar
    22    11    17   ar
    23    12    13   ar
    24    13    24    1
    25    14    21   ar
    26    15    18   ar
    27    15    25    1
    28    16    19   ar
    29    16    26    1
    30    17    20   ar
    31    17    27    1
    32    18    22   ar
    33    19    22   ar
    34    20    21   ar
    35    21    28    1
    36    23    34    1
    37    23    35    1
    38    23    36    1
