@<TRIPOS>MOLECULE
IMPHY013985
 24 24 0 0 0
SMALL
GASTEIGER

@<TRIPOS>ATOM
      1 O           4.5981    0.0000    0.0000 O.2     1  UNL1       -0.2741
      2 N           2.8660    0.0000    0.0000 N.am    1  UNL1       -0.2844
      3 N           4.5981    2.0000    0.0000 N.3     1  UNL1       -0.3112
      4 C           3.7320    1.5000    0.0000 C.3     1  UNL1        0.0733
      5 C           2.8660   -1.0000    0.0000 C.ar    1  UNL1        0.0334
      6 C           3.7320    0.5000    0.0000 C.2     1  UNL1        0.2311
      7 C           2.0000   -1.5000    0.0000 C.ar    1  UNL1       -0.0405
      8 C           3.7320   -1.5000    0.0000 C.ar    1  UNL1       -0.0405
      9 C           2.0000   -2.5000    0.0000 C.ar    1  UNL1       -0.0600
     10 C           3.7320   -2.5000    0.0000 C.ar    1  UNL1       -0.0600
     11 C           2.8660   -3.0000    0.0000 C.ar    1  UNL1       -0.0616
     12 C           4.5981    3.0000    0.0000 C.3     1  UNL1       -0.0154
     13 H           3.5200    2.0826    0.0000 H       1  UNL1        0.0520
     14 H           3.1215    1.3923    0.0000 H       1  UNL1        0.0520
     15 H           2.3291    0.3100    0.0000 H       1  UNL1        0.1548
     16 H           1.4631   -1.1900    0.0000 H       1  UNL1        0.0636
     17 H           4.2690   -1.1900    0.0000 H       1  UNL1        0.0636
     18 H           5.1350    1.6900    0.0000 H       1  UNL1        0.1221
     19 H           1.4631   -2.8100    0.0000 H       1  UNL1        0.0618
     20 H           4.2690   -2.8100    0.0000 H       1  UNL1        0.0618
     21 H           2.8660   -3.6200    0.0000 H       1  UNL1        0.0618
     22 H           5.2181    3.0000    0.0000 H       1  UNL1        0.0388
     23 H           4.5981    3.6200    0.0000 H       1  UNL1        0.0388
     24 H           3.9781    3.0000    0.0000 H       1  UNL1        0.0388
@<TRIPOS>BOND
     1     1     6    2
     2     2     5    1
     3     2     6   am
     4     2    15    1
     5     3     4    1
     6     3    12    1
     7     3    18    1
     8     4     6    1
     9     4    13    1
    10     4    14    1
    11     5     7   ar
    12     5     8   ar
    13     7     9   ar
    14     7    16    1
    15     8    10   ar
    16     8    17    1
    17     9    11   ar
    18     9    19    1
    19    10    11   ar
    20    10    20    1
    21    11    21    1
    22    12    22    1
    23    12    23    1
    24    12    24    1
