@<TRIPOS>MOLECULE
IMPHY006906
 75 78 0 0 0
SMALL
GASTEIGER

@<TRIPOS>ATOM
      1 O          11.6495    3.8479    0.0000 O.3     1  UNL1       -0.3907
      2 C           6.5251   -0.8776    0.0000 C.3     1  UNL1       -0.0259
      3 C           6.5251   -1.8776    0.0000 C.3     1  UNL1       -0.0320
      4 C           5.6591   -2.3776    0.0000 C.3     1  UNL1       -0.0307
      5 C           4.7931   -1.8776    0.0000 C.3     1  UNL1       -0.0285
      6 C           7.4714   -0.5728    0.0000 C.3     1  UNL1       -0.0328
      7 C           5.6591   -0.3776    0.0000 C.3     1  UNL1       -0.0468
      8 C           3.8831   -2.3844    0.0000 C.3     1  UNL1       -0.0080
      9 C           7.4714   -2.1823    0.0000 C.3     1  UNL1       -0.0492
     10 C           4.7931   -0.8776    0.0000 C.3     1  UNL1       -0.0486
     11 C           8.0550   -1.3776    0.0000 C.3     1  UNL1       -0.0492
     12 C           5.6752   -3.4191    0.0000 C.3     1  UNL1       -0.0311
     13 C           7.7820    0.3777    0.0000 C.3     1  UNL1       -0.0403
     14 C           6.5251    0.1224    0.0000 C.3     1  UNL1       -0.0590
     15 C           3.8751   -3.4260    0.0000 C.2     1  UNL1       -0.0673
     16 C           2.9562   -1.8203    0.0000 C.3     1  UNL1       -0.0436
     17 C           4.7771   -3.9468    0.0000 C.2     1  UNL1       -0.0840
     18 C           3.8908   -1.3844    0.0000 C.3     1  UNL1       -0.0556
     19 C           2.9396   -3.9758    0.0000 C.3     1  UNL1       -0.0312
     20 C           2.0084   -2.3483    0.0000 C.3     1  UNL1       -0.0520
     21 C           8.7605    0.5839    0.0000 C.3     1  UNL1       -0.0465
     22 C           2.0000   -3.4332    0.0000 C.3     1  UNL1       -0.0493
     23 C           7.1142    1.1220    0.0000 C.3     1  UNL1       -0.0621
     24 C           9.0712    1.5344    0.0000 C.3     1  UNL1       -0.0314
     25 C          10.0497    1.7406    0.0000 C.2     1  UNL1       -0.0715
     26 C          10.3604    2.6912    0.0000 C.2     1  UNL1       -0.0486
     27 C          10.7175    0.9963    0.0000 C.3     1  UNL1       -0.0435
     28 C          11.3389    2.8974    0.0000 C.3     1  UNL1        0.0653
     29 C           9.6925    3.4354    0.0000 C.3     1  UNL1       -0.0414
     30 H           6.6151   -2.7228    0.0000 H       1  UNL1        0.0309
     31 H           6.3985   -2.7969    0.0000 H       1  UNL1        0.0309
     32 H           5.5292   -1.4526    0.0000 H       1  UNL1        0.0312
     33 H           8.3111   -0.4410    0.0000 H       1  UNL1        0.0309
     34 H           6.0576    0.0974    0.0000 H       1  UNL1        0.0271
     35 H           5.2606    0.0974    0.0000 H       1  UNL1        0.0271
     36 H           7.2203   -2.7492    0.0000 H       1  UNL1        0.0268
     37 H           8.0087   -2.4915    0.0000 H       1  UNL1        0.0268
     38 H           4.5810   -0.2950    0.0000 H       1  UNL1        0.0268
     39 H           4.1825   -0.9852    0.0000 H       1  UNL1        0.0268
     40 H           8.5158   -1.7923    0.0000 H       1  UNL1        0.0268
     41 H           8.5158   -0.9628    0.0000 H       1  UNL1        0.0268
     42 H           5.8932   -3.9995    0.0000 H       1  UNL1        0.0310
     43 H           6.2843   -3.3036    0.0000 H       1  UNL1        0.0310
     44 H           7.9746    0.9670    0.0000 H       1  UNL1        0.0301
     45 H           7.1451    0.1224    0.0000 H       1  UNL1        0.0235
     46 H           6.5251    0.7424    0.0000 H       1  UNL1        0.0235
     47 H           5.9051    0.1224    0.0000 H       1  UNL1        0.0235
     48 H           3.3645   -1.3537    0.0000 H       1  UNL1        0.0274
     49 H           2.5663   -1.3383    0.0000 H       1  UNL1        0.0274
     50 H           4.7795   -4.5668    0.0000 H       1  UNL1        0.0572
     51 H           4.5108   -1.3892    0.0000 H       1  UNL1        0.0238
     52 H           3.8956   -0.7645    0.0000 H       1  UNL1        0.0238
     53 H           3.2708   -1.3797    0.0000 H       1  UNL1        0.0238
     54 H           2.5423   -4.4517    0.0000 H       1  UNL1        0.0310
     55 H           3.3406   -4.4486    0.0000 H       1  UNL1        0.0310
     56 H           1.8038   -1.7630    0.0000 H       1  UNL1        0.0266
     57 H           1.3967   -2.4497    0.0000 H       1  UNL1        0.0266
     58 H           8.7811   -0.0358    0.0000 H       1  UNL1        0.0271
     59 H           9.3743    0.4965    0.0000 H       1  UNL1        0.0271
     60 H           1.3900   -3.3224    0.0000 H       1  UNL1        0.0268
     61 H           1.7864   -4.0153    0.0000 H       1  UNL1        0.0268
     62 H           7.5756    1.5360    0.0000 H       1  UNL1        0.0233
     63 H           6.7001    1.5834    0.0000 H       1  UNL1        0.0233
     64 H           6.6527    0.7079    0.0000 H       1  UNL1        0.0233
     65 H           9.0506    2.1541    0.0000 H       1  UNL1        0.0310
     66 H           8.4574    1.6218    0.0000 H       1  UNL1        0.0310
     67 H          10.2561    0.5823    0.0000 H       1  UNL1        0.0274
     68 H          11.1316    0.5349    0.0000 H       1  UNL1        0.0274
     69 H          11.1790    1.4104    0.0000 H       1  UNL1        0.0274
     70 H          11.3594    2.2777    0.0000 H       1  UNL1        0.0604
     71 H          11.9527    2.8100    0.0000 H       1  UNL1        0.0604
     72 H          10.1540    3.8495    0.0000 H       1  UNL1        0.0275
     73 H           9.2784    3.8969    0.0000 H       1  UNL1        0.0275
     74 H           9.2310    3.0214    0.0000 H       1  UNL1        0.0275
     75 H          12.2562    3.9758    0.0000 H       1  UNL1        0.2098
@<TRIPOS>BOND
     1     1    28    1
     2     1    75    1
     3     2     3    1
     4     2     6    1
     5     2     7    1
     6     2    14    1
     7     3     4    1
     8     3     9    1
     9     3    30    1
    10     4     5    1
    11     4    12    1
    12     4    31    1
    13     5     8    1
    14     5    10    1
    15     5    32    1
    16     6    11    1
    17     6    13    1
    18     6    33    1
    19     7    10    1
    20     7    34    1
    21     7    35    1
    22     8    15    1
    23     8    16    1
    24     8    18    1
    25     9    11    1
    26     9    36    1
    27     9    37    1
    28    10    38    1
    29    10    39    1
    30    11    40    1
    31    11    41    1
    32    12    17    1
    33    12    42    1
    34    12    43    1
    35    13    21    1
    36    13    23    1
    37    13    44    1
    38    14    45    1
    39    14    46    1
    40    14    47    1
    41    15    17    2
    42    15    19    1
    43    16    20    1
    44    16    48    1
    45    16    49    1
    46    17    50    1
    47    18    51    1
    48    18    52    1
    49    18    53    1
    50    19    22    1
    51    19    54    1
    52    19    55    1
    53    20    22    1
    54    20    56    1
    55    20    57    1
    56    21    24    1
    57    21    58    1
    58    21    59    1
    59    22    60    1
    60    22    61    1
    61    23    62    1
    62    23    63    1
    63    23    64    1
    64    24    25    1
    65    24    65    1
    66    24    66    1
    67    25    26    2
    68    25    27    1
    69    26    28    1
    70    26    29    1
    71    27    67    1
    72    27    68    1
    73    27    69    1
    74    28    70    1
    75    28    71    1
    76    29    72    1
    77    29    73    1
    78    29    74    1
