@<TRIPOS>MOLECULE
IMPHY009280
 16 16 0 0 0
SMALL
GASTEIGER

@<TRIPOS>ATOM
      1 O           2.0000   -0.7500    0.0000 O.2     1  UNL1       -0.2677
      2 N           3.7320   -0.7500    0.0000 N.ar    1  UNL1       -0.3170
      3 N           6.3301    1.7500    0.0000 N.1     1  UNL1       -0.1908
      4 C           4.5981   -0.2500    0.0000 C.ar    1  UNL1        0.0250
      5 C           2.8660   -0.2500    0.0000 C.ar    1  UNL1        0.2511
      6 C           4.5981    0.7500    0.0000 C.ar    1  UNL1        0.0681
      7 C           3.7320   -1.7500    0.0000 C.3     1  UNL1        0.0147
      8 C           2.8660    0.7500    0.0000 C.ar    1  UNL1        0.0042
      9 C           3.7320    1.2500    0.0000 C.ar    1  UNL1       -0.0378
     10 C           5.4641    1.2500    0.0000 C.1     1  UNL1        0.1006
     11 H           5.1350   -0.5600    0.0000 H       1  UNL1        0.0823
     12 H           3.1120   -1.7500    0.0000 H       1  UNL1        0.0457
     13 H           3.7320   -2.3700    0.0000 H       1  UNL1        0.0457
     14 H           4.3520   -1.7500    0.0000 H       1  UNL1        0.0457
     15 H           2.3291    1.0600    0.0000 H       1  UNL1        0.0672
     16 H           3.7320    1.8700    0.0000 H       1  UNL1        0.0632
@<TRIPOS>BOND
     1     1     5    2
     2     2     4   ar
     3     2     5   ar
     4     2     7    1
     5     3    10    3
     6     4     6   ar
     7     4    11    1
     8     5     8   ar
     9     6     9   ar
    10     6    10    1
    11     7    12    1
    12     7    13    1
    13     7    14    1
    14     8     9   ar
    15     8    15    1
    16     9    16    1
