@<TRIPOS>MOLECULE
IMPHY001933
 39 40 0 0 0
SMALL
GASTEIGER

@<TRIPOS>ATOM
      1 O           8.0622    0.0000    0.0000 O.3     1  UNL1       -0.4578
      2 O           5.4641    1.5000    0.0000 O.3     1  UNL1       -0.4572
      3 O           9.7942    0.0000    0.0000 O.2     1  UNL1       -0.2456
      4 O           3.7320    1.5000    0.0000 O.2     1  UNL1       -0.2511
      5 C           7.1962    0.5000    0.0000 C.3     1  UNL1        0.1105
      6 C           6.3301    0.0000    0.0000 C.3     1  UNL1        0.0255
      7 C           5.4641    0.5000    0.0000 C.3     1  UNL1        0.1249
      8 C           7.1962    1.5000    0.0000 C.3     1  UNL1        0.0032
      9 C           8.0622    2.0000    0.0000 C.2     1  UNL1       -0.0738
     10 C           4.5981    0.0000    0.0000 C.2     1  UNL1       -0.0433
     11 C           8.9282    0.5000    0.0000 C.2     1  UNL1        0.3319
     12 C           8.9282    1.5000    0.0000 C.2     1  UNL1        0.0187
     13 C           4.5981   -1.0000    0.0000 C.2     1  UNL1       -0.0551
     14 C           3.7320   -1.5000    0.0000 C.ar    1  UNL1       -0.0252
     15 C           4.5981    2.0000    0.0000 C.2     1  UNL1        0.3045
     16 C           3.7320   -2.5000    0.0000 C.ar    1  UNL1       -0.0546
     17 C           2.8660   -1.0000    0.0000 C.ar    1  UNL1       -0.0546
     18 C           4.5981    3.0000    0.0000 C.3     1  UNL1        0.0333
     19 C           2.8660   -3.0000    0.0000 C.ar    1  UNL1       -0.0612
     20 C           2.0000   -1.5000    0.0000 C.ar    1  UNL1       -0.0612
     21 C           2.0000   -2.5000    0.0000 C.ar    1  UNL1       -0.0617
     22 H           7.1962   -0.1200    0.0000 H       1  UNL1        0.0738
     23 H           5.9316   -0.4749    0.0000 H       1  UNL1        0.0340
     24 H           6.7287   -0.4749    0.0000 H       1  UNL1        0.0340
     25 H           6.0010    0.8100    0.0000 H       1  UNL1        0.0780
     26 H           6.9841    2.0826    0.0000 H       1  UNL1        0.0343
     27 H           6.5856    1.3923    0.0000 H       1  UNL1        0.0343
     28 H           8.0622    2.6200    0.0000 H       1  UNL1        0.0575
     29 H           4.0611    0.3100    0.0000 H       1  UNL1        0.0609
     30 H           9.4651    1.8100    0.0000 H       1  UNL1        0.0686
     31 H           5.1350   -1.3100    0.0000 H       1  UNL1        0.0621
     32 H           4.2690   -2.8100    0.0000 H       1  UNL1        0.0623
     33 H           2.8660   -0.3800    0.0000 H       1  UNL1        0.0623
     34 H           5.2181    3.0000    0.0000 H       1  UNL1        0.0342
     35 H           4.5981    3.6200    0.0000 H       1  UNL1        0.0342
     36 H           3.9781    3.0000    0.0000 H       1  UNL1        0.0342
     37 H           2.8660   -3.6200    0.0000 H       1  UNL1        0.0618
     38 H           1.4631   -1.1900    0.0000 H       1  UNL1        0.0618
     39 H           1.4631   -2.8100    0.0000 H       1  UNL1        0.0618
@<TRIPOS>BOND
     1     1     5    1
     2     1    11    1
     3     7     2    1
     4     2    15    1
     5     3    11    2
     6     4    15    2
     7     5     6    1
     8     5     8    1
     9     5    22    1
    10     6     7    1
    11     6    23    1
    12     6    24    1
    13     7    10    1
    14     7    25    1
    15     8     9    1
    16     8    26    1
    17     8    27    1
    18     9    12    2
    19     9    28    1
    20    10    13    2
    21    10    29    1
    22    11    12    1
    23    12    30    1
    24    13    14    1
    25    13    31    1
    26    14    16   ar
    27    14    17   ar
    28    15    18    1
    29    16    19   ar
    30    16    32    1
    31    17    20   ar
    32    17    33    1
    33    18    34    1
    34    18    35    1
    35    18    36    1
    36    19    21   ar
    37    19    37    1
    38    20    21   ar
    39    20    38    1
    40    21    39    1
