@<TRIPOS>MOLECULE
IMPHY005830
 43 44 0 0 0
SMALL
GASTEIGER

@<TRIPOS>ATOM
      1 C           5.4641   -0.7673    0.0000 C.3     1  UNL1       -0.0290
      2 C           5.4641    0.2327    0.0000 C.3     1  UNL1       -0.0328
      3 C           6.3580    0.7674    0.0000 C.3     1  UNL1       -0.0405
      4 C           4.5981    0.7327    0.0000 C.3     1  UNL1       -0.0464
      5 C           4.5981   -1.2673    0.0000 C.3     1  UNL1       -0.0471
      6 C           3.7320    0.2327    0.0000 C.3     1  UNL1       -0.0384
      7 C           6.3580   -1.3020    0.0000 C.3     1  UNL1       -0.0474
      8 C           3.7320   -0.7673    0.0000 C.3     1  UNL1       -0.0495
      9 C           7.2641    0.2535    0.0000 C.3     1  UNL1       -0.0502
     10 C           7.2641   -0.7881    0.0000 C.3     1  UNL1       -0.0523
     11 C           5.4641   -1.7673    0.0000 C.3     1  UNL1       -0.0593
     12 C           2.8660    0.7327    0.0000 C.3     1  UNL1       -0.0439
     13 C           6.3465    1.7673    0.0000 C.3     1  UNL1       -0.0621
     14 C           2.0000    0.2327    0.0000 C.3     1  UNL1       -0.0624
     15 C           2.8660    1.7327    0.0000 C.3     1  UNL1       -0.0624
     16 H           5.4576    1.0827    0.0000 H       1  UNL1        0.0309
     17 H           6.8920    1.0825    0.0000 H       1  UNL1        0.0301
     18 H           4.9966    1.2076    0.0000 H       1  UNL1        0.0271
     19 H           4.1996    1.2076    0.0000 H       1  UNL1        0.0271
     20 H           4.1996   -1.7422    0.0000 H       1  UNL1        0.0271
     21 H           4.9966   -1.7422    0.0000 H       1  UNL1        0.0271
     22 H           3.7320    0.8527    0.0000 H       1  UNL1        0.0303
     23 H           5.9534   -1.7718    0.0000 H       1  UNL1        0.0271
     24 H           6.7517   -1.7810    0.0000 H       1  UNL1        0.0271
     25 H           3.1215   -0.6596    0.0000 H       1  UNL1        0.0268
     26 H           3.5200   -1.3499    0.0000 H       1  UNL1        0.0268
     27 H           7.8750    0.1474    0.0000 H       1  UNL1        0.0268
     28 H           7.4732    0.8372    0.0000 H       1  UNL1        0.0268
     29 H           7.4732   -1.3718    0.0000 H       1  UNL1        0.0266
     30 H           7.8750   -0.6820    0.0000 H       1  UNL1        0.0266
     31 H           4.8441   -1.7673    0.0000 H       1  UNL1        0.0235
     32 H           5.4641   -2.3873    0.0000 H       1  UNL1        0.0235
     33 H           6.0841   -1.7673    0.0000 H       1  UNL1        0.0235
     34 H           2.8660    0.1127    0.0000 H       1  UNL1        0.0298
     35 H           6.9664    1.7745    0.0000 H       1  UNL1        0.0233
     36 H           6.3393    2.3873    0.0000 H       1  UNL1        0.0233
     37 H           5.7265    1.7601    0.0000 H       1  UNL1        0.0233
     38 H           1.6900    0.7696    0.0000 H       1  UNL1        0.0232
     39 H           1.4631   -0.0773    0.0000 H       1  UNL1        0.0232
     40 H           2.3100   -0.3042    0.0000 H       1  UNL1        0.0232
     41 H           3.4860    1.7327    0.0000 H       1  UNL1        0.0232
     42 H           2.8660    2.3527    0.0000 H       1  UNL1        0.0232
     43 H           2.2460    1.7327    0.0000 H       1  UNL1        0.0232
@<TRIPOS>BOND
     1     1     2    1
     2     1     5    1
     3     1     7    1
     4     1    11    1
     5     2     3    1
     6     2     4    1
     7     2    16    1
     8     3     9    1
     9     3    13    1
    10     3    17    1
    11     4     6    1
    12     4    18    1
    13     4    19    1
    14     5     8    1
    15     5    20    1
    16     5    21    1
    17     6     8    1
    18     6    12    1
    19     6    22    1
    20     7    10    1
    21     7    23    1
    22     7    24    1
    23     8    25    1
    24     8    26    1
    25     9    10    1
    26     9    27    1
    27     9    28    1
    28    10    29    1
    29    10    30    1
    30    11    31    1
    31    11    32    1
    32    11    33    1
    33    12    14    1
    34    12    15    1
    35    12    34    1
    36    13    35    1
    37    13    36    1
    38    13    37    1
    39    14    38    1
    40    14    39    1
    41    14    40    1
    42    15    41    1
    43    15    42    1
    44    15    43    1
