@<TRIPOS>MOLECULE
IMPHY008469
 57 61 0 0 0
SMALL
GASTEIGER

@<TRIPOS>ATOM
      1 O           8.4571   -1.1277    0.0000 O.3     1  UNL1       -0.4796
      2 O           6.0682    1.3441    0.0000 O.3     1  UNL1       -0.4802
      3 O           5.4169   -0.8611    0.0000 O.3     1  UNL1       -0.3943
      4 O           7.8003    3.3441    0.0000 O.3     1  UNL1       -0.3798
      5 O          10.3984   -0.1559    0.0000 O.3     1  UNL1       -0.5033
      6 O           6.0682    4.3441    0.0000 O.2     1  UNL1       -0.2889
      7 O           7.4684   -4.6949    0.0000 O.3     1  UNL1       -0.4914
      8 O           4.3198    4.3787    0.0000 O.3     1  UNL1       -0.5058
      9 O           5.4684   -4.6949    0.0000 O.3     1  UNL1       -0.5033
     10 O           2.5381    1.3200    0.0000 O.3     1  UNL1       -0.5065
     11 C           7.0633   -0.3230    0.0000 C.3     1  UNL1        0.0524
     12 C           7.4684   -1.2308    0.0000 C.3     1  UNL1        0.1344
     13 C           7.8003    0.3441    0.0000 C.ar    1  UNL1        0.0138
     14 C           7.8003    1.3441    0.0000 C.ar    1  UNL1        0.0029
     15 C           8.6663   -0.1559    0.0000 C.ar    1  UNL1        0.1666
     16 C           6.9343    1.8441    0.0000 C.3     1  UNL1        0.1585
     17 C           6.0848   -0.1168    0.0000 C.3     1  UNL1        0.0548
     18 C           6.9684   -2.0968    0.0000 C.ar    1  UNL1       -0.0030
     19 C           6.9343    2.8441    0.0000 C.3     1  UNL1        0.1585
     20 C           8.6663    1.8441    0.0000 C.ar    1  UNL1       -0.0510
     21 C           9.5323    0.3441    0.0000 C.ar    1  UNL1        0.1588
     22 C           9.5323    1.3441    0.0000 C.ar    1  UNL1       -0.0161
     23 C           6.0682    3.3441    0.0000 C.2     1  UNL1        0.2024
     24 C           5.2022    1.8441    0.0000 C.ar    1  UNL1        0.1391
     25 C           7.4684   -2.9628    0.0000 C.ar    1  UNL1       -0.0096
     26 C           5.2022    2.8441    0.0000 C.ar    1  UNL1        0.1033
     27 C           5.9684   -2.0968    0.0000 C.ar    1  UNL1       -0.0514
     28 C           6.9684   -3.8288    0.0000 C.ar    1  UNL1        0.1616
     29 C           5.4684   -2.9628    0.0000 C.ar    1  UNL1       -0.0161
     30 C           4.3083    3.3788    0.0000 C.ar    1  UNL1        0.1344
     31 C           4.3083    1.3094    0.0000 C.ar    1  UNL1        0.0225
     32 C           5.9684   -3.8288    0.0000 C.ar    1  UNL1        0.1585
     33 C           3.4022    1.8233    0.0000 C.ar    1  UNL1        0.1238
     34 C           3.4022    2.8649    0.0000 C.ar    1  UNL1        0.0222
     35 C           8.4684   -4.6949    0.0000 C.3     1  UNL1        0.0790
     36 H           6.9015    0.2755    0.0000 H       1  UNL1        0.0412
     37 H           6.8492   -1.1986    0.0000 H       1  UNL1        0.0791
     38 H           6.9343    1.2241    0.0000 H       1  UNL1        0.0815
     39 H           6.3160    0.4585    0.0000 H       1  UNL1        0.0564
     40 H           5.5584    0.2109    0.0000 H       1  UNL1        0.0564
     41 H           6.9343    3.4641    0.0000 H       1  UNL1        0.0718
     42 H           8.6663    2.4641    0.0000 H       1  UNL1        0.0623
     43 H          10.0693    1.6541    0.0000 H       1  UNL1        0.0655
     44 H           8.0884   -2.9628    0.0000 H       1  UNL1        0.0659
     45 H           5.6584   -1.5599    0.0000 H       1  UNL1        0.0623
     46 H           4.8103   -0.7332    0.0000 H       1  UNL1        0.2094
     47 H           7.8003    3.9641    0.0000 H       1  UNL1        0.2105
     48 H           4.8484   -2.9628    0.0000 H       1  UNL1        0.0655
     49 H           4.3154    0.6895    0.0000 H       1  UNL1        0.0691
     50 H          10.9353    0.1541    0.0000 H       1  UNL1        0.2923
     51 H           2.8665    3.1770    0.0000 H       1  UNL1        0.0691
     52 H           3.7865    4.6949    0.0000 H       1  UNL1        0.2922
     53 H           4.8484   -4.6949    0.0000 H       1  UNL1        0.2923
     54 H           2.0000    1.6279    0.0000 H       1  UNL1        0.2921
     55 H           8.4684   -5.3149    0.0000 H       1  UNL1        0.0660
     56 H           9.0884   -4.6949    0.0000 H       1  UNL1        0.0660
     57 H           8.4684   -4.0749    0.0000 H       1  UNL1        0.0660
@<TRIPOS>BOND
     1     1    12    1
     2     1    15    1
     3     2    16    1
     4     2    24    1
     5     3    17    1
     6     3    46    1
     7     4    19    1
     8     4    47    1
     9     5    21    1
    10     5    50    1
    11     6    23    2
    12     7    28    1
    13     7    35    1
    14     8    30    1
    15     8    52    1
    16     9    32    1
    17     9    53    1
    18    10    33    1
    19    10    54    1
    20    11    12    1
    21    11    13    1
    22    11    17    1
    23    11    36    1
    24    12    18    1
    25    12    37    1
    26    13    14   ar
    27    13    15   ar
    28    14    16    1
    29    14    20   ar
    30    15    21   ar
    31    16    19    1
    32    16    38    1
    33    17    39    1
    34    17    40    1
    35    18    25   ar
    36    18    27   ar
    37    19    23    1
    38    19    41    1
    39    20    22   ar
    40    20    42    1
    41    21    22   ar
    42    22    43    1
    43    23    26    1
    44    24    26   ar
    45    24    31   ar
    46    25    28   ar
    47    25    44    1
    48    26    30   ar
    49    27    29   ar
    50    27    45    1
    51    28    32   ar
    52    29    32   ar
    53    29    48    1
    54    30    34   ar
    55    31    33   ar
    56    31    49    1
    57    33    34   ar
    58    34    51    1
    59    35    55    1
    60    35    56    1
    61    35    57    1
