@<TRIPOS>MOLECULE
IMPHY014685
 39 40 0 0 0
SMALL
GASTEIGER

@<TRIPOS>ATOM
      1 C           5.4641   -0.7673    0.0000 C.3     1  UNL1       -0.0255
      2 C           5.4641    0.2327    0.0000 C.3     1  UNL1       -0.0142
      3 C           4.5981   -1.2673    0.0000 C.3     1  UNL1       -0.0465
      4 C           4.5981    0.7327    0.0000 C.3     1  UNL1       -0.0395
      5 C           6.3580   -1.3020    0.0000 C.3     1  UNL1       -0.0468
      6 C           3.7320    0.2327    0.0000 C.3     1  UNL1       -0.0198
      7 C           3.7320   -0.7673    0.0000 C.3     1  UNL1       -0.0460
      8 C           6.3580    0.7674    0.0000 C.2     1  UNL1       -0.0730
      9 C           7.2641   -0.7881    0.0000 C.3     1  UNL1       -0.0489
     10 C           5.4641   -1.7673    0.0000 C.3     1  UNL1       -0.0590
     11 C           7.2641    0.2535    0.0000 C.3     1  UNL1       -0.0317
     12 C           2.8660    0.7327    0.0000 C.2     1  UNL1       -0.0766
     13 C           6.3465    1.7673    0.0000 C.2     1  UNL1       -0.0992
     14 C           2.0000    0.2327    0.0000 C.3     1  UNL1       -0.0438
     15 C           2.8660    1.7327    0.0000 C.2     1  UNL1       -0.0994
     16 H           5.4576    1.0827    0.0000 H       1  UNL1        0.0351
     17 H           4.1996   -1.7422    0.0000 H       1  UNL1        0.0271
     18 H           4.9966   -1.7422    0.0000 H       1  UNL1        0.0271
     19 H           4.9966    1.2076    0.0000 H       1  UNL1        0.0277
     20 H           4.1996    1.2076    0.0000 H       1  UNL1        0.0277
     21 H           5.9534   -1.7718    0.0000 H       1  UNL1        0.0271
     22 H           6.7517   -1.7810    0.0000 H       1  UNL1        0.0271
     23 H           3.7320    0.8527    0.0000 H       1  UNL1        0.0346
     24 H           3.1215   -0.6596    0.0000 H       1  UNL1        0.0271
     25 H           3.5200   -1.3499    0.0000 H       1  UNL1        0.0271
     26 H           7.4732   -1.3718    0.0000 H       1  UNL1        0.0268
     27 H           7.8750   -0.6820    0.0000 H       1  UNL1        0.0268
     28 H           4.8441   -1.7673    0.0000 H       1  UNL1        0.0235
     29 H           5.4641   -2.3873    0.0000 H       1  UNL1        0.0235
     30 H           6.0841   -1.7673    0.0000 H       1  UNL1        0.0235
     31 H           7.8750    0.1474    0.0000 H       1  UNL1        0.0310
     32 H           7.4732    0.8372    0.0000 H       1  UNL1        0.0310
     33 H           6.8798    2.0835    0.0000 H       1  UNL1        0.0534
     34 H           5.8060    2.0711    0.0000 H       1  UNL1        0.0534
     35 H           1.6900    0.7696    0.0000 H       1  UNL1        0.0274
     36 H           1.4631   -0.0773    0.0000 H       1  UNL1        0.0274
     37 H           2.3100   -0.3042    0.0000 H       1  UNL1        0.0274
     38 H           3.4030    2.0427    0.0000 H       1  UNL1        0.0534
     39 H           2.3291    2.0427    0.0000 H       1  UNL1        0.0534
@<TRIPOS>BOND
     1     1     2    1
     2     1     3    1
     3     1     5    1
     4     1    10    1
     5     2     4    1
     6     2     8    1
     7     2    16    1
     8     3     7    1
     9     3    17    1
    10     3    18    1
    11     4     6    1
    12     4    19    1
    13     4    20    1
    14     5     9    1
    15     5    21    1
    16     5    22    1
    17     6     7    1
    18     6    12    1
    19     6    23    1
    20     7    24    1
    21     7    25    1
    22     8    11    1
    23     8    13    2
    24     9    11    1
    25     9    26    1
    26     9    27    1
    27    10    28    1
    28    10    29    1
    29    10    30    1
    30    11    31    1
    31    11    32    1
    32    12    14    1
    33    12    15    2
    34    13    33    1
    35    13    34    1
    36    14    35    1
    37    14    36    1
    38    14    37    1
    39    15    38    1
    40    15    39    1
