@<TRIPOS>MOLECULE
IMPHY012836
 30 31 0 0 0
SMALL
GASTEIGER

@<TRIPOS>ATOM
      1 O           2.5369   -0.5950    0.0000 O.3     1  UNL1       -0.5059
      2 O           4.2690   -3.5950    0.0000 O.3     1  UNL1       -0.5066
      3 O           3.4030    0.9050    0.0000 O.2     1  UNL1       -0.2872
      4 C           4.2690   -0.5950    0.0000 C.ar    1  UNL1        0.0632
      5 C           3.4030   -1.0950    0.0000 C.ar    1  UNL1        0.1311
      6 C           4.2690    0.4050    0.0000 C.2     1  UNL1        0.1896
      7 C           5.1350   -1.0950    0.0000 C.ar    1  UNL1       -0.0440
      8 C           6.0010    2.4050    0.0000 C.ar    1  UNL1       -0.0249
      9 C           3.4030   -2.0950    0.0000 C.ar    1  UNL1        0.0220
     10 C           5.1350    0.9050    0.0000 C.2     1  UNL1       -0.0137
     11 C           5.1350   -2.0950    0.0000 C.ar    1  UNL1       -0.0193
     12 C           5.1350    1.9050    0.0000 C.2     1  UNL1       -0.0510
     13 C           4.2690   -2.5950    0.0000 C.ar    1  UNL1        0.1204
     14 C           6.8671    1.9050    0.0000 C.ar    1  UNL1       -0.0546
     15 C           6.0010    3.4050    0.0000 C.ar    1  UNL1       -0.0546
     16 C           7.7331    2.4050    0.0000 C.ar    1  UNL1       -0.0612
     17 C           6.8671    3.9050    0.0000 C.ar    1  UNL1       -0.0612
     18 C           7.7331    3.4050    0.0000 C.ar    1  UNL1       -0.0617
     19 H           5.6720   -0.7850    0.0000 H       1  UNL1        0.0627
     20 H           2.8660   -2.4050    0.0000 H       1  UNL1        0.0691
     21 H           5.6720    0.5950    0.0000 H       1  UNL1        0.0656
     22 H           5.6720   -2.4050    0.0000 H       1  UNL1        0.0654
     23 H           4.5981    2.2150    0.0000 H       1  UNL1        0.0625
     24 H           6.8671    1.2850    0.0000 H       1  UNL1        0.0623
     25 H           5.4641    3.7150    0.0000 H       1  UNL1        0.0623
     26 H           8.2700    2.0950    0.0000 H       1  UNL1        0.0618
     27 H           6.8671    4.5250    0.0000 H       1  UNL1        0.0618
     28 H           8.2700    3.7150    0.0000 H       1  UNL1        0.0618
     29 H           2.0000   -0.9050    0.0000 H       1  UNL1        0.2922
     30 H           4.8059   -3.9050    0.0000 H       1  UNL1        0.2921
@<TRIPOS>BOND
     1     1     5    1
     2     1    29    1
     3     2    13    1
     4     2    30    1
     5     3     6    2
     6     4     5   ar
     7     4     6    1
     8     4     7   ar
     9     5     9   ar
    10     6    10    1
    11     7    11   ar
    12     7    19    1
    13     8    12    1
    14     8    14   ar
    15     8    15   ar
    16     9    13   ar
    17     9    20    1
    18    10    12    2
    19    10    21    1
    20    11    13   ar
    21    11    22    1
    22    12    23    1
    23    14    16   ar
    24    14    24    1
    25    15    17   ar
    26    15    25    1
    27    16    18   ar
    28    16    26    1
    29    17    18   ar
    30    17    27    1
    31    18    28    1
