@<TRIPOS>MOLECULE
IMPHY015137
 21 21 0 0 0
SMALL
GASTEIGER

@<TRIPOS>ATOM
      1 C           2.8090    0.3649    0.0000 C.3     1  UNL1       -0.0349
      2 C           2.0000   -0.2229    0.0000 C.3     1  UNL1       -0.0479
      3 C           3.6180   -0.2229    0.0000 C.3     1  UNL1       -0.0479
      4 C           2.3090   -1.1739    0.0000 C.3     1  UNL1       -0.0526
      5 C           3.3090   -1.1739    0.0000 C.3     1  UNL1       -0.0526
      6 C           3.3968    1.1739    0.0000 C.3     1  UNL1       -0.0598
      7 C           2.2212    1.1739    0.0000 C.3     1  UNL1       -0.0598
      8 H           1.6900    0.3141    0.0000 H       1  UNL1        0.0270
      9 H           1.4336   -0.4750    0.0000 H       1  UNL1        0.0270
     10 H           4.1844   -0.4750    0.0000 H       1  UNL1        0.0270
     11 H           3.9280    0.3141    0.0000 H       1  UNL1        0.0270
     12 H           1.7026   -1.3028    0.0000 H       1  UNL1        0.0265
     13 H           2.3738   -1.7905    0.0000 H       1  UNL1        0.0265
     14 H           3.2442   -1.7905    0.0000 H       1  UNL1        0.0265
     15 H           3.9155   -1.3028    0.0000 H       1  UNL1        0.0265
     16 H           3.8984    0.8095    0.0000 H       1  UNL1        0.0235
     17 H           3.7612    1.6755    0.0000 H       1  UNL1        0.0235
     18 H           2.8952    1.5384    0.0000 H       1  UNL1        0.0235
     19 H           2.7228    1.5384    0.0000 H       1  UNL1        0.0235
     20 H           1.8568    1.6755    0.0000 H       1  UNL1        0.0235
     21 H           1.7196    0.8095    0.0000 H       1  UNL1        0.0235
@<TRIPOS>BOND
     1     1     2    1
     2     1     3    1
     3     1     6    1
     4     1     7    1
     5     2     4    1
     6     2     8    1
     7     2     9    1
     8     3     5    1
     9     3    10    1
    10     3    11    1
    11     4     5    1
    12     4    12    1
    13     4    13    1
    14     5    14    1
    15     5    15    1
    16     6    16    1
    17     6    17    1
    18     6    18    1
    19     7    19    1
    20     7    20    1
    21     7    21    1
