@<TRIPOS>MOLECULE
IMPHY015590
 31 32 0 0 0
SMALL
GASTEIGER

@<TRIPOS>ATOM
      1 O           3.7320    0.2500    0.0000 O.3     1  UNL1       -0.4579
      2 O           2.0000    0.2500    0.0000 O.2     1  UNL1       -0.2450
      3 C           3.7320    1.2500    0.0000 C.3     1  UNL1        0.1034
      4 C           4.5981    1.7500    0.0000 C.3     1  UNL1       -0.0157
      5 C           2.8660    1.7500    0.0000 C.3     1  UNL1       -0.0157
      6 C           4.5981    2.7500    0.0000 C.3     1  UNL1       -0.0497
      7 C           2.8660    2.7500    0.0000 C.3     1  UNL1       -0.0497
      8 C           3.7320    3.2500    0.0000 C.3     1  UNL1       -0.0528
      9 C           2.8660   -0.2500    0.0000 C.2     1  UNL1        0.3394
     10 C           2.8660   -1.2500    0.0000 C.ar    1  UNL1        0.0590
     11 C           2.0000   -1.7500    0.0000 C.ar    1  UNL1       -0.0478
     12 C           3.7320   -1.7500    0.0000 C.ar    1  UNL1       -0.0478
     13 C           2.0000   -2.7500    0.0000 C.ar    1  UNL1       -0.0610
     14 C           3.7320   -2.7500    0.0000 C.ar    1  UNL1       -0.0610
     15 C           2.8660   -3.2500    0.0000 C.ar    1  UNL1       -0.0617
     16 H           4.2690    0.9400    0.0000 H       1  UNL1        0.0734
     17 H           4.8101    1.1674    0.0000 H       1  UNL1        0.0301
     18 H           5.2087    1.8577    0.0000 H       1  UNL1        0.0301
     19 H           2.2554    1.8577    0.0000 H       1  UNL1        0.0301
     20 H           2.6540    1.1674    0.0000 H       1  UNL1        0.0301
     21 H           5.2087    2.6423    0.0000 H       1  UNL1        0.0266
     22 H           4.8101    3.3326    0.0000 H       1  UNL1        0.0266
     23 H           2.6540    3.3326    0.0000 H       1  UNL1        0.0266
     24 H           2.2554    2.6423    0.0000 H       1  UNL1        0.0266
     25 H           4.1306    3.7250    0.0000 H       1  UNL1        0.0265
     26 H           3.3335    3.7250    0.0000 H       1  UNL1        0.0265
     27 H           1.4631   -1.4400    0.0000 H       1  UNL1        0.0626
     28 H           4.2690   -1.4400    0.0000 H       1  UNL1        0.0626
     29 H           1.4631   -3.0600    0.0000 H       1  UNL1        0.0618
     30 H           4.2690   -3.0600    0.0000 H       1  UNL1        0.0618
     31 H           2.8660   -3.8700    0.0000 H       1  UNL1        0.0618
@<TRIPOS>BOND
     1     1     3    1
     2     1     9    1
     3     2     9    2
     4     3     4    1
     5     3     5    1
     6     3    16    1
     7     4     6    1
     8     4    17    1
     9     4    18    1
    10     5     7    1
    11     5    19    1
    12     5    20    1
    13     6     8    1
    14     6    21    1
    15     6    22    1
    16     7     8    1
    17     7    23    1
    18     7    24    1
    19     8    25    1
    20     8    26    1
    21     9    10    1
    22    10    11   ar
    23    10    12   ar
    24    11    13   ar
    25    11    27    1
    26    12    14   ar
    27    12    28    1
    28    13    15   ar
    29    13    29    1
    30    14    15   ar
    31    14    30    1
    32    15    31    1
