@<TRIPOS>MOLECULE
IMPHY003443
 39 41 0 0 0
SMALL
GASTEIGER

@<TRIPOS>ATOM
      1 O           6.3580   -0.9259    0.0000 O.3     1  UNL1       -0.4826
      2 O           2.8660   -0.8913    0.0000 O.3     1  UNL1       -0.4939
      3 O           6.3465    2.1433    0.0000 O.2     1  UNL1       -0.2917
      4 O           4.5981    2.1087    0.0000 O.3     1  UNL1       -0.5051
      5 O           2.0000    0.6087    0.0000 O.2     1  UNL1       -0.2955
      6 C           7.2641   -0.4121    0.0000 C.3     1  UNL1        0.1322
      7 C           7.2641    0.6296    0.0000 C.3     1  UNL1        0.0520
      8 C           5.4641   -0.3913    0.0000 C.ar    1  UNL1        0.1418
      9 C           5.4641    0.6087    0.0000 C.ar    1  UNL1        0.1016
     10 C           6.3580    1.1434    0.0000 C.2     1  UNL1        0.1741
     11 C           8.1282   -0.9154    0.0000 C.ar    1  UNL1       -0.0069
     12 C           4.5981   -0.8913    0.0000 C.ar    1  UNL1        0.0344
     13 C           4.5981    1.1087    0.0000 C.ar    1  UNL1        0.1446
     14 C           3.7320   -0.3913    0.0000 C.ar    1  UNL1        0.1402
     15 C           3.7320    0.6087    0.0000 C.ar    1  UNL1        0.0982
     16 C           4.5981   -1.8913    0.0000 C.3     1  UNL1       -0.0327
     17 C           8.1244   -1.9154    0.0000 C.ar    1  UNL1       -0.0551
     18 C           8.9962   -0.4188    0.0000 C.ar    1  UNL1       -0.0551
     19 C           8.9884   -2.4187    0.0000 C.ar    1  UNL1       -0.0614
     20 C           9.8602   -0.9221    0.0000 C.ar    1  UNL1       -0.0614
     21 C           2.8660    1.1087    0.0000 C.2     1  UNL1        0.1573
     22 C           9.8564   -1.9221    0.0000 C.ar    1  UNL1       -0.0617
     23 C           2.8660   -1.8913    0.0000 C.3     1  UNL1        0.0788
     24 H           7.2605   -1.0321    0.0000 H       1  UNL1        0.0789
     25 H           7.8750    0.5235    0.0000 H       1  UNL1        0.0385
     26 H           7.4732    1.2132    0.0000 H       1  UNL1        0.0385
     27 H           3.9781   -1.8913    0.0000 H       1  UNL1        0.0280
     28 H           4.5981   -2.5113    0.0000 H       1  UNL1        0.0280
     29 H           5.2181   -1.8913    0.0000 H       1  UNL1        0.0280
     30 H           7.5862   -2.2233    0.0000 H       1  UNL1        0.0621
     31 H           8.9985    0.2012    0.0000 H       1  UNL1        0.0621
     32 H           8.9860   -3.0387    0.0000 H       1  UNL1        0.0618
     33 H          10.3984   -0.6142    0.0000 H       1  UNL1        0.0618
     34 H           2.8660    1.7287    0.0000 H       1  UNL1        0.1084
     35 H           4.0611    2.4187    0.0000 H       1  UNL1        0.2922
     36 H          10.3921   -2.2342    0.0000 H       1  UNL1        0.0618
     37 H           2.2460   -1.8913    0.0000 H       1  UNL1        0.0660
     38 H           2.8660   -2.5113    0.0000 H       1  UNL1        0.0660
     39 H           3.4860   -1.8913    0.0000 H       1  UNL1        0.0660
@<TRIPOS>BOND
     1     1     6    1
     2     1     8    1
     3     2    14    1
     4     2    23    1
     5     3    10    2
     6     4    13    1
     7     4    35    1
     8     5    21    2
     9     6     7    1
    10     6    11    1
    11     6    24    1
    12     7    10    1
    13     7    25    1
    14     7    26    1
    15     8     9   ar
    16     8    12   ar
    17     9    10    1
    18     9    13   ar
    19    11    17   ar
    20    11    18   ar
    21    12    14   ar
    22    12    16    1
    23    13    15   ar
    24    14    15   ar
    25    15    21    1
    26    16    27    1
    27    16    28    1
    28    16    29    1
    29    17    19   ar
    30    17    30    1
    31    18    20   ar
    32    18    31    1
    33    19    22   ar
    34    19    32    1
    35    20    22   ar
    36    20    33    1
    37    21    34    1
    38    22    36    1
    39    23    37    1
    40    23    38    1
    41    23    39    1
