@<TRIPOS>MOLECULE
IMPHY007743
 45 48 0 0 0
SMALL
GASTEIGER

@<TRIPOS>ATOM
      1 O           2.9176    1.2673    0.0000 O.2     1  UNL1       -0.2756
      2 N           5.5321   -0.2673    0.0000 N.3     1  UNL1       -0.2782
      3 N           3.8000   -0.2673    0.0000 N.am    1  UNL1       -0.2826
      4 C           5.5321   -1.2673    0.0000 C.3     1  UNL1        0.0143
      5 C           4.6660    0.2327    0.0000 C.3     1  UNL1        0.0802
      6 C           6.4421    0.2395    0.0000 C.3     1  UNL1        0.0126
      7 C           3.8000   -1.2673    0.0000 C.3     1  UNL1        0.0289
      8 C           4.6660   -1.7673    0.0000 C.3     1  UNL1       -0.0185
      9 C           6.3903   -1.7642    0.0000 C.3     1  UNL1       -0.0346
     10 C           7.2814   -0.2887    0.0000 C.3     1  UNL1       -0.0346
     11 C           7.2558   -1.2801    0.0000 C.3     1  UNL1       -0.0411
     12 C           4.6500    1.2742    0.0000 C.3     1  UNL1       -0.0206
     13 C           6.4501    1.2812    0.0000 C.3     1  UNL1       -0.0372
     14 C           5.5480    1.8020    0.0000 C.3     1  UNL1       -0.0487
     15 C           2.9061   -1.8020    0.0000 C.3     1  UNL1       -0.0338
     16 C           2.9061    0.2674    0.0000 C.2     1  UNL1        0.2170
     17 C           2.0000   -1.2881    0.0000 C.3     1  UNL1       -0.0431
     18 C           8.1118   -1.7970    0.0000 C.3     1  UNL1       -0.0623
     19 C           2.0000   -0.2465    0.0000 C.3     1  UNL1        0.0243
     20 H           5.5315   -2.1173    0.0000 H       1  UNL1        0.0464
     21 H           5.3989    0.6634    0.0000 H       1  UNL1        0.0672
     22 H           7.1877    0.6476    0.0000 H       1  UNL1        0.0463
     23 H           3.8066   -2.1173    0.0000 H       1  UNL1        0.0501
     24 H           4.2675   -2.2422    0.0000 H       1  UNL1        0.0298
     25 H           5.0646   -2.2422    0.0000 H       1  UNL1        0.0298
     26 H           5.9892   -2.2370    0.0000 H       1  UNL1        0.0283
     27 H           6.7843   -2.2429    0.0000 H       1  UNL1        0.0283
     28 H           7.8885   -0.4146    0.0000 H       1  UNL1        0.0283
     29 H           7.5131    0.2864    0.0000 H       1  UNL1        0.0283
     30 H           7.2454   -1.9000    0.0000 H       1  UNL1        0.0299
     31 H           4.4319    1.8546    0.0000 H       1  UNL1        0.0296
     32 H           4.0408    1.1587    0.0000 H       1  UNL1        0.0296
     33 H           7.0601    1.1704    0.0000 H       1  UNL1        0.0280
     34 H           6.6636    1.8632    0.0000 H       1  UNL1        0.0280
     35 H           5.9453    2.2779    0.0000 H       1  UNL1        0.0267
     36 H           5.1470    2.2748    0.0000 H       1  UNL1        0.0267
     37 H           2.5124   -2.2810    0.0000 H       1  UNL1        0.0283
     38 H           3.3107   -2.2718    0.0000 H       1  UNL1        0.0283
     39 H           1.3891   -1.1820    0.0000 H       1  UNL1        0.0270
     40 H           1.7909   -1.8718    0.0000 H       1  UNL1        0.0270
     41 H           7.7913   -2.3277    0.0000 H       1  UNL1        0.0232
     42 H           8.6425   -2.1175    0.0000 H       1  UNL1        0.0232
     43 H           8.4323   -1.2663    0.0000 H       1  UNL1        0.0232
     44 H           1.7909    0.3372    0.0000 H       1  UNL1        0.0358
     45 H           1.3891   -0.3526    0.0000 H       1  UNL1        0.0358
@<TRIPOS>BOND
     1     1    16    2
     2     2     4    1
     3     2     5    1
     4     2     6    1
     5     3     5    1
     6     3     7    1
     7     3    16   am
     8     4     8    1
     9     4     9    1
    10     4    20    1
    11     5    12    1
    12     5    21    1
    13     6    10    1
    14     6    13    1
    15     6    22    1
    16     7     8    1
    17     7    15    1
    18     7    23    1
    19     8    24    1
    20     8    25    1
    21     9    11    1
    22     9    26    1
    23     9    27    1
    24    10    11    1
    25    10    28    1
    26    10    29    1
    27    11    18    1
    28    11    30    1
    29    12    14    1
    30    12    31    1
    31    12    32    1
    32    13    14    1
    33    13    33    1
    34    13    34    1
    35    14    35    1
    36    14    36    1
    37    15    17    1
    38    15    37    1
    39    15    38    1
    40    16    19    1
    41    17    19    1
    42    17    39    1
    43    17    40    1
    44    18    41    1
    45    18    42    1
    46    18    43    1
    47    19    44    1
    48    19    45    1
