@<TRIPOS>MOLECULE
IMPHY007469
 29 31 0 0 0
SMALL
GASTEIGER

@<TRIPOS>ATOM
      1 O           5.9685   -2.0630    0.0000 O.2     1  UNL1       -0.4184
      2 O           3.8456   -2.8183    0.0000 O.2     1  UNL1       -0.2888
      3 O           2.4615    0.0989    0.0000 O.3     1  UNL1       -0.4802
      4 O           5.0807    1.4684    0.0000 O.3     1  UNL1       -0.5028
      5 O           3.6182    1.3880    0.0000 O.2     1  UNL1       -0.2503
      6 O           7.7006   -2.0630    0.0000 O.2     1  UNL1       -0.2445
      7 O           6.8467    2.5062    0.0000 O.3     1  UNL1       -0.5009
      8 O           8.6205    1.4821    0.0000 O.3     1  UNL1       -0.5032
      9 C           4.1563   -0.2583    0.0000 C.3     1  UNL1        0.0925
     10 C           5.1025   -0.5630    0.0000 C.ar    1  UNL1        0.0241
     11 C           3.5727   -1.0630    0.0000 C.3     1  UNL1        0.0307
     12 C           5.1025   -1.5630    0.0000 C.ar    1  UNL1        0.1788
     13 C           5.9685   -0.0630    0.0000 C.ar    1  UNL1        0.0419
     14 C           4.1563   -1.8678    0.0000 C.2     1  UNL1        0.1994
     15 C           6.8346   -0.5630    0.0000 C.ar    1  UNL1        0.0741
     16 C           3.4120    0.4095    0.0000 C.2     1  UNL1        0.3128
     17 C           5.9525    0.9785    0.0000 C.ar    1  UNL1        0.1705
     18 C           6.8346   -1.5630    0.0000 C.ar    1  UNL1        0.3454
     19 C           7.7446   -0.0562    0.0000 C.ar    1  UNL1       -0.0017
     20 C           6.8505    1.5062    0.0000 C.ar    1  UNL1        0.2012
     21 C           7.7526    0.9854    0.0000 C.ar    1  UNL1        0.1628
     22 H           4.4651    0.2793    0.0000 H       1  UNL1        0.0468
     23 H           3.1118   -0.6483    0.0000 H       1  UNL1        0.0357
     24 H           3.1118   -1.4778    0.0000 H       1  UNL1        0.0357
     25 H           8.2779   -0.3724    0.0000 H       1  UNL1        0.0664
     26 H           2.0000    0.5129    0.0000 H       1  UNL1        0.2951
     27 H           5.0736    2.0884    0.0000 H       1  UNL1        0.2923
     28 H           7.3824    2.8183    0.0000 H       1  UNL1        0.2924
     29 H           9.1563    1.1700    0.0000 H       1  UNL1        0.2923
@<TRIPOS>BOND
     1     1    12   ar
     2     1    18   ar
     3     2    14    2
     4     3    16    1
     5     3    26    1
     6     4    17    1
     7     4    27    1
     8     5    16    2
     9     6    18    2
    10     7    20    1
    11     7    28    1
    12     8    21    1
    13     8    29    1
    14     9    10    1
    15     9    11    1
    16     9    16    1
    17     9    22    1
    18    10    12   ar
    19    10    13   ar
    20    11    14    1
    21    11    23    1
    22    11    24    1
    23    12    14    1
    24    13    15   ar
    25    13    17   ar
    26    15    18   ar
    27    15    19   ar
    28    17    20   ar
    29    19    21   ar
    30    19    25    1
    31    20    21   ar
