@<TRIPOS>MOLECULE
IMPHY000611
 50 53 0 0 0
SMALL
GASTEIGER

@<TRIPOS>ATOM
      1 O           5.1350   -2.7819    0.0000 O.3     1  UNL1       -0.3313
      2 O           6.8671   -2.7819    0.0000 O.3     1  UNL1       -0.4607
      3 O           5.1350   -5.7819    0.0000 O.3     1  UNL1       -0.3864
      4 O           3.4030   -4.7819    0.0000 O.3     1  UNL1       -0.3865
      5 O           6.8671   -4.7819    0.0000 O.3     1  UNL1       -0.3829
      6 O           2.5369   -3.2819    0.0000 O.3     1  UNL1       -0.3924
      7 O           8.6230    0.2806    0.0000 O.2     1  UNL1       -0.4620
      8 O           6.0308    1.7906    0.0000 O.2     1  UNL1       -0.2864
      9 O           7.7782    5.7839    0.0000 O.3     1  UNL1       -0.5068
     10 C           5.1350   -4.7819    0.0000 C.3     1  UNL1        0.1152
     11 C           4.2690   -4.2819    0.0000 C.3     1  UNL1        0.1120
     12 C           6.0010   -4.2819    0.0000 C.3     1  UNL1        0.1454
     13 C           4.2690   -3.2819    0.0000 C.3     1  UNL1        0.1140
     14 C           6.0010   -3.2819    0.0000 C.3     1  UNL1        0.2308
     15 C           3.4030   -2.7819    0.0000 C.3     1  UNL1        0.0731
     16 C           6.8671   -1.7819    0.0000 C.ar    1  UNL1        0.1275
     17 C           7.7671   -1.2576    0.0000 C.ar    1  UNL1        0.0232
     18 C           5.9670   -1.2576    0.0000 C.ar    1  UNL1       -0.0189
     19 C           7.7551   -0.2160    0.0000 C.ar    1  UNL1        0.1419
     20 C           6.8910    0.2873    0.0000 C.ar    1  UNL1        0.0648
     21 C           5.9790   -0.2160    0.0000 C.ar    1  UNL1       -0.0439
     22 C           6.8948    1.2873    0.0000 C.ar    1  UNL1        0.2001
     23 C           7.7628    1.7840    0.0000 C.ar    1  UNL1        0.0643
     24 C           8.6269    1.2806    0.0000 C.ar    1  UNL1        0.1038
     25 C           7.7666    2.7840    0.0000 C.ar    1  UNL1       -0.0110
     26 C           8.6346    3.2806    0.0000 C.ar    1  UNL1       -0.0504
     27 C           6.9026    3.2873    0.0000 C.ar    1  UNL1       -0.0504
     28 C           8.6384    4.2806    0.0000 C.ar    1  UNL1       -0.0196
     29 C           6.9064    4.2873    0.0000 C.ar    1  UNL1       -0.0196
     30 C           7.7744    4.7840    0.0000 C.ar    1  UNL1        0.1169
     31 H           5.6720   -5.0919    0.0000 H       1  UNL1        0.0648
     32 H           4.2690   -4.9019    0.0000 H       1  UNL1        0.0647
     33 H           6.5380   -3.9719    0.0000 H       1  UNL1        0.0683
     34 H           4.2690   -2.6619    0.0000 H       1  UNL1        0.0647
     35 H           6.0010   -2.6619    0.0000 H       1  UNL1        0.1084
     36 H           3.8015   -2.3069    0.0000 H       1  UNL1        0.0584
     37 H           3.0044   -2.3069    0.0000 H       1  UNL1        0.0584
     38 H           4.5981   -6.0919    0.0000 H       1  UNL1        0.2100
     39 H           3.4030   -5.4019    0.0000 H       1  UNL1        0.2100
     40 H           6.8671   -5.4019    0.0000 H       1  UNL1        0.2102
     41 H           2.0000   -2.9719    0.0000 H       1  UNL1        0.2095
     42 H           8.3064   -1.5634    0.0000 H       1  UNL1        0.0691
     43 H           5.4277   -1.5634    0.0000 H       1  UNL1        0.0654
     44 H           5.4470    0.1022    0.0000 H       1  UNL1        0.0627
     45 H           9.1650    1.5886    0.0000 H       1  UNL1        0.1037
     46 H           9.1703    2.9686    0.0000 H       1  UNL1        0.0625
     47 H           6.3644    2.9794    0.0000 H       1  UNL1        0.0625
     48 H           9.1766    4.5885    0.0000 H       1  UNL1        0.0654
     49 H           6.3707    4.5994    0.0000 H       1  UNL1        0.0654
     50 H           8.3163    6.0919    0.0000 H       1  UNL1        0.2921
@<TRIPOS>BOND
     1     1    13    1
     2     1    14    1
     3    14     2    1
     4     2    16    1
     5    10     3    1
     6     3    38    1
     7    11     4    1
     8     4    39    1
     9    12     5    1
    10     5    40    1
    11     6    15    1
    12     6    41    1
    13     7    19   ar
    14     7    24   ar
    15     8    22    2
    16     9    30    1
    17     9    50    1
    18    10    11    1
    19    10    12    1
    20    10    31    1
    21    11    13    1
    22    11    32    1
    23    12    14    1
    24    12    33    1
    25    13    15    1
    26    13    34    1
    27    14    35    1
    28    15    36    1
    29    15    37    1
    30    16    17   ar
    31    16    18   ar
    32    17    19   ar
    33    17    42    1
    34    18    21   ar
    35    18    43    1
    36    19    20   ar
    37    20    21   ar
    38    20    22   ar
    39    21    44    1
    40    22    23   ar
    41    23    24   ar
    42    23    25    1
    43    24    45    1
    44    25    26   ar
    45    25    27   ar
    46    26    28   ar
    47    26    46    1
    48    27    29   ar
    49    27    47    1
    50    28    30   ar
    51    28    48    1
    52    29    30   ar
    53    29    49    1
