@<TRIPOS>MOLECULE
IMPHY002874
 37 38 0 0 0
SMALL
GASTEIGER

@<TRIPOS>ATOM
      1 C           5.4641   -0.0000    0.0000 C.3     1  UNL1       -0.0008
      2 C           6.3580   -0.5347    0.0000 C.3     1  UNL1       -0.0308
      3 C           4.5981   -0.5000    0.0000 C.3     1  UNL1       -0.0215
      4 C           5.4641    1.0000    0.0000 C.2     1  UNL1       -0.0448
      5 C           7.2641   -0.0208    0.0000 C.3     1  UNL1       -0.0311
      6 C           5.4641   -1.0000    0.0000 C.3     1  UNL1       -0.0550
      7 C           3.7320   -0.0000    0.0000 C.2     1  UNL1       -0.0662
      8 C           3.7320    1.0000    0.0000 C.3     1  UNL1       -0.0127
      9 C           6.3465   -1.5346    0.0000 C.3     1  UNL1       -0.0613
     10 C           4.5981    1.5000    0.0000 C.2     1  UNL1       -0.0763
     11 C           6.3580    1.5346    0.0000 C.2     1  UNL1       -0.0622
     12 C           7.2641    1.0208    0.0000 C.2     1  UNL1       -0.0835
     13 C           2.8660   -0.5000    0.0000 C.2     1  UNL1       -0.0761
     14 C           2.0000   -0.0000    0.0000 C.3     1  UNL1       -0.0438
     15 C           2.8660   -1.5000    0.0000 C.3     1  UNL1       -0.0438
     16 H           6.8920   -0.8499    0.0000 H       1  UNL1        0.0310
     17 H           4.1996   -0.9750    0.0000 H       1  UNL1        0.0319
     18 H           4.9966   -0.9750    0.0000 H       1  UNL1        0.0319
     19 H           7.4732   -0.6045    0.0000 H       1  UNL1        0.0310
     20 H           7.8750    0.0852    0.0000 H       1  UNL1        0.0310
     21 H           4.8441   -1.0000    0.0000 H       1  UNL1        0.0238
     22 H           5.4641   -1.6200    0.0000 H       1  UNL1        0.0238
     23 H           6.0841   -1.0000    0.0000 H       1  UNL1        0.0238
     24 H           3.5200    1.5826    0.0000 H       1  UNL1        0.0353
     25 H           3.1215    0.8923    0.0000 H       1  UNL1        0.0353
     26 H           5.7265   -1.5275    0.0000 H       1  UNL1        0.0233
     27 H           6.3393   -2.1546    0.0000 H       1  UNL1        0.0233
     28 H           6.9664   -1.5418    0.0000 H       1  UNL1        0.0233
     29 H           4.5981    2.1200    0.0000 H       1  UNL1        0.0578
     30 H           6.3509    2.1546    0.0000 H       1  UNL1        0.0617
     31 H           7.7998    1.3328    0.0000 H       1  UNL1        0.0572
     32 H           2.3100    0.5369    0.0000 H       1  UNL1        0.0274
     33 H           1.4631    0.3100    0.0000 H       1  UNL1        0.0274
     34 H           1.6900   -0.5370    0.0000 H       1  UNL1        0.0274
     35 H           2.2460   -1.5000    0.0000 H       1  UNL1        0.0274
     36 H           2.8660   -2.1200    0.0000 H       1  UNL1        0.0274
     37 H           3.4860   -1.5000    0.0000 H       1  UNL1        0.0274
@<TRIPOS>BOND
     1     1     2    1
     2     1     3    1
     3     1     4    1
     4     1     6    1
     5     2     5    1
     6     2     9    1
     7     2    16    1
     8     3     7    1
     9     3    17    1
    10     3    18    1
    11     4    10    2
    12     4    11    1
    13     5    12    1
    14     5    19    1
    15     5    20    1
    16     6    21    1
    17     6    22    1
    18     6    23    1
    19     7     8    1
    20     7    13    2
    21     8    10    1
    22     8    24    1
    23     8    25    1
    24     9    26    1
    25     9    27    1
    26     9    28    1
    27    10    29    1
    28    11    12    2
    29    11    30    1
    30    12    31    1
    31    13    14    1
    32    13    15    1
    33    14    32    1
    34    14    33    1
    35    14    34    1
    36    15    35    1
    37    15    36    1
    38    15    37    1
