@<TRIPOS>MOLECULE
IMPHY007264
 35 36 0 0 0
SMALL
GASTEIGER

@<TRIPOS>ATOM
      1 O           2.8660    1.7327    0.0000 O.2     1  UNL1       -0.2927
      2 C           5.4641   -0.7673    0.0000 C.3     1  UNL1       -0.0218
      3 C           5.4641    0.2327    0.0000 C.3     1  UNL1       -0.0104
      4 C           6.3580   -1.3020    0.0000 C.3     1  UNL1       -0.0465
      5 C           4.5981   -1.2673    0.0000 C.3     1  UNL1       -0.0281
      6 C           4.5981    0.7327    0.0000 C.3     1  UNL1       -0.0177
      7 C           6.3580    0.7674    0.0000 C.2     1  UNL1       -0.0727
      8 C           7.2641   -0.7881    0.0000 C.3     1  UNL1       -0.0488
      9 C           7.2641    0.2535    0.0000 C.3     1  UNL1       -0.0317
     10 C           5.4641   -1.7673    0.0000 C.3     1  UNL1       -0.0587
     11 C           3.7320    0.2327    0.0000 C.2     1  UNL1       -0.0086
     12 C           3.7320   -0.7673    0.0000 C.2     1  UNL1       -0.0770
     13 C           6.3465    1.7673    0.0000 C.2     1  UNL1       -0.0992
     14 C           2.8660    0.7327    0.0000 C.2     1  UNL1        0.1559
     15 C           2.0000    0.2327    0.0000 C.3     1  UNL1       -0.0017
     16 H           5.4576    1.0827    0.0000 H       1  UNL1        0.0354
     17 H           5.9534   -1.7718    0.0000 H       1  UNL1        0.0271
     18 H           6.7517   -1.7810    0.0000 H       1  UNL1        0.0271
     19 H           4.1996   -1.7422    0.0000 H       1  UNL1        0.0313
     20 H           4.9966   -1.7422    0.0000 H       1  UNL1        0.0313
     21 H           4.9966    1.2076    0.0000 H       1  UNL1        0.0320
     22 H           4.1996    1.2076    0.0000 H       1  UNL1        0.0320
     23 H           7.4732   -1.3718    0.0000 H       1  UNL1        0.0268
     24 H           7.8750   -0.6820    0.0000 H       1  UNL1        0.0268
     25 H           7.8750    0.1474    0.0000 H       1  UNL1        0.0310
     26 H           7.4732    0.8372    0.0000 H       1  UNL1        0.0310
     27 H           4.8441   -1.7673    0.0000 H       1  UNL1        0.0235
     28 H           5.4641   -2.3873    0.0000 H       1  UNL1        0.0235
     29 H           6.0841   -1.7673    0.0000 H       1  UNL1        0.0235
     30 H           3.1951   -1.0773    0.0000 H       1  UNL1        0.0576
     31 H           6.8798    2.0835    0.0000 H       1  UNL1        0.0534
     32 H           5.8060    2.0711    0.0000 H       1  UNL1        0.0534
     33 H           1.6900    0.7696    0.0000 H       1  UNL1        0.0309
     34 H           1.4631   -0.0773    0.0000 H       1  UNL1        0.0309
     35 H           2.3100   -0.3042    0.0000 H       1  UNL1        0.0309
@<TRIPOS>BOND
     1     1    14    2
     2     2     3    1
     3     2     4    1
     4     2     5    1
     5     2    10    1
     6     3     6    1
     7     3     7    1
     8     3    16    1
     9     4     8    1
    10     4    17    1
    11     4    18    1
    12     5    12    1
    13     5    19    1
    14     5    20    1
    15     6    11    1
    16     6    21    1
    17     6    22    1
    18     7     9    1
    19     7    13    2
    20     8     9    1
    21     8    23    1
    22     8    24    1
    23     9    25    1
    24     9    26    1
    25    10    27    1
    26    10    28    1
    27    10    29    1
    28    11    12    2
    29    11    14    1
    30    12    30    1
    31    13    31    1
    32    13    32    1
    33    14    15    1
    34    15    33    1
    35    15    34    1
    36    15    35    1
