@<TRIPOS>MOLECULE
IMPHY006391
 29 28 0 0 0
SMALL
GASTEIGER

@<TRIPOS>ATOM
      1 O          10.6603    0.2500    0.0000 O.3     1  UNL1       -0.3950
      2 C           8.0622   -0.2500    0.0000 C.3     1  UNL1       -0.0327
      3 C           8.9282    0.2500    0.0000 C.3     1  UNL1       -0.0263
      4 C           7.1962    0.2500    0.0000 C.2     1  UNL1       -0.0876
      5 C           9.7942   -0.2500    0.0000 C.3     1  UNL1        0.0445
      6 C           5.4641    0.2500    0.0000 C.3     1  UNL1       -0.0165
      7 C           6.3301   -0.2500    0.0000 C.2     1  UNL1       -0.0842
      8 C           4.5981   -0.2500    0.0000 C.2     1  UNL1       -0.0842
      9 C           2.8660   -0.2500    0.0000 C.3     1  UNL1       -0.0376
     10 C           3.7320    0.2500    0.0000 C.2     1  UNL1       -0.0879
     11 C           2.0000    0.2500    0.0000 C.3     1  UNL1       -0.0618
     12 H           7.6636   -0.7249    0.0000 H       1  UNL1        0.0308
     13 H           8.4607   -0.7249    0.0000 H       1  UNL1        0.0308
     14 H           9.3267    0.7249    0.0000 H       1  UNL1        0.0290
     15 H           8.5297    0.7249    0.0000 H       1  UNL1        0.0290
     16 H           7.1962    0.8700    0.0000 H       1  UNL1        0.0569
     17 H           9.3957   -0.7249    0.0000 H       1  UNL1        0.0557
     18 H          10.1928   -0.7249    0.0000 H       1  UNL1        0.0557
     19 H           5.8626    0.7249    0.0000 H       1  UNL1        0.0350
     20 H           5.0656    0.7249    0.0000 H       1  UNL1        0.0350
     21 H           6.3301   -0.8700    0.0000 H       1  UNL1        0.0572
     22 H           4.5981   -0.8700    0.0000 H       1  UNL1        0.0572
     23 H           2.4675   -0.7249    0.0000 H       1  UNL1        0.0305
     24 H           3.2646   -0.7249    0.0000 H       1  UNL1        0.0305
     25 H           3.7320    0.8700    0.0000 H       1  UNL1        0.0569
     26 H           2.3100    0.7869    0.0000 H       1  UNL1        0.0233
     27 H           1.4631    0.5600    0.0000 H       1  UNL1        0.0233
     28 H           1.6900   -0.2869    0.0000 H       1  UNL1        0.0233
     29 H          11.1972   -0.0600    0.0000 H       1  UNL1        0.2094
@<TRIPOS>BOND
     1     1     5    1
     2     1    29    1
     3     2     3    1
     4     2     4    1
     5     2    12    1
     6     2    13    1
     7     3     5    1
     8     3    14    1
     9     3    15    1
    10     4     7    2
    11     4    16    1
    12     5    17    1
    13     5    18    1
    14     6     7    1
    15     6     8    1
    16     6    19    1
    17     6    20    1
    18     7    21    1
    19     8    10    2
    20     8    22    1
    21     9    10    1
    22     9    11    1
    23     9    23    1
    24     9    24    1
    25    10    25    1
    26    11    26    1
    27    11    27    1
    28    11    28    1
