@<TRIPOS>MOLECULE
IMPHY002269
 71 72 0 0 0
SMALL
GASTEIGER

@<TRIPOS>ATOM
      1 O           2.8660    1.4440    0.0000 O.3     1  UNL1       -0.4862
      2 O           3.7226    0.9273    0.0000 O.2     1  UNL1       -0.2736
      3 O           6.9641    1.0780    0.0000 O.2     1  UNL1       -0.2741
      4 O           3.7118   -2.0192    0.0000 O.2     1  UNL1       -0.2734
      5 N           5.4641    1.9440    0.0000 N.am    1  UNL1       -0.2997
      6 N           5.4641   -0.0560    0.0000 N.am    1  UNL1       -0.3023
      7 N           7.9641    2.8100    0.0000 N.3     1  UNL1       -0.2979
      8 N           4.5981   -2.5560    0.0000 N.am    1  UNL1       -0.2904
      9 C           3.7320    1.9440    0.0000 C.3     1  UNL1        0.1292
     10 C           4.5981    1.4440    0.0000 C.3     1  UNL1        0.1368
     11 C           3.7320    2.9440    0.0000 C.3     1  UNL1       -0.0073
     12 C           5.4641   -1.0560    0.0000 C.3     1  UNL1        0.0999
     13 C           4.5981    0.4440    0.0000 C.2     1  UNL1        0.2376
     14 C           6.3301   -1.5560    0.0000 C.3     1  UNL1       -0.0236
     15 C           7.1962   -1.0560    0.0000 C.3     1  UNL1       -0.0446
     16 C           2.8660    3.4440    0.0000 C.3     1  UNL1       -0.0592
     17 C           4.5981    3.4440    0.0000 C.3     1  UNL1       -0.0592
     18 C           6.4641    1.9440    0.0000 C.2     1  UNL1        0.2307
     19 C           6.9641    2.8100    0.0000 C.3     1  UNL1        0.0839
     20 C           4.5981   -1.5560    0.0000 C.2     1  UNL1        0.2371
     21 C           8.0622   -1.5560    0.0000 C.3     1  UNL1       -0.0626
     22 C           7.1962   -0.0560    0.0000 C.3     1  UNL1       -0.0626
     23 C           2.8660    0.4440    0.0000 C.ar    1  UNL1        0.1211
     24 C           6.4641    3.6760    0.0000 C.3     1  UNL1       -0.0410
     25 C           3.7320   -0.0560    0.0000 C.ar    1  UNL1       -0.0194
     26 C           2.0000   -0.0560    0.0000 C.ar    1  UNL1       -0.0194
     27 C           8.4641    3.6760    0.0000 C.3     1  UNL1       -0.0123
     28 C           8.4641    1.9440    0.0000 C.3     1  UNL1       -0.0123
     29 C           2.8660   -1.5560    0.0000 C.ar    1  UNL1       -0.0236
     30 C           3.7320   -1.0560    0.0000 C.ar    1  UNL1       -0.0511
     31 C           2.0000   -1.0560    0.0000 C.ar    1  UNL1       -0.0511
     32 C           3.7320   -3.0560    0.0000 C.2     1  UNL1       -0.0031
     33 C           2.8660   -2.5560    0.0000 C.2     1  UNL1       -0.0407
     34 H           3.1951    2.2540    0.0000 H       1  UNL1        0.0759
     35 H           5.1350    1.1340    0.0000 H       1  UNL1        0.0632
     36 H           4.2690    2.6340    0.0000 H       1  UNL1        0.0332
     37 H           6.0010   -0.7460    0.0000 H       1  UNL1        0.0595
     38 H           5.9316   -2.0310    0.0000 H       1  UNL1        0.0290
     39 H           6.7287   -2.0310    0.0000 H       1  UNL1        0.0290
     40 H           5.4641    2.5640    0.0000 H       1  UNL1        0.1496
     41 H           6.6592   -0.7460    0.0000 H       1  UNL1        0.0296
     42 H           6.0010    0.2540    0.0000 H       1  UNL1        0.1495
     43 H           4.9081    2.9070    0.0000 H       1  UNL1        0.0233
     44 H           3.1760    3.9809    0.0000 H       1  UNL1        0.0233
     45 H           2.3291    3.7540    0.0000 H       1  UNL1        0.0233
     46 H           2.5560    2.9070    0.0000 H       1  UNL1        0.0233
     47 H           5.1350    3.7540    0.0000 H       1  UNL1        0.0233
     48 H           4.2881    3.9809    0.0000 H       1  UNL1        0.0233
     49 H           7.2741    2.2731    0.0000 H       1  UNL1        0.0555
     50 H           7.8162   -0.0560    0.0000 H       1  UNL1        0.0232
     51 H           7.1962    0.5640    0.0000 H       1  UNL1        0.0232
     52 H           6.5762   -0.0560    0.0000 H       1  UNL1        0.0232
     53 H           7.7522   -2.0930    0.0000 H       1  UNL1        0.0232
     54 H           8.5991   -1.8660    0.0000 H       1  UNL1        0.0232
     55 H           8.3722   -1.0191    0.0000 H       1  UNL1        0.0232
     56 H           7.0010    3.9860    0.0000 H       1  UNL1        0.0249
     57 H           6.1541    4.2130    0.0000 H       1  UNL1        0.0249
     58 H           5.9272    3.3660    0.0000 H       1  UNL1        0.0249
     59 H           5.1350   -2.8660    0.0000 H       1  UNL1        0.1543
     60 H           4.2690    0.2540    0.0000 H       1  UNL1        0.0654
     61 H           1.4631    0.2540    0.0000 H       1  UNL1        0.0654
     62 H           7.9272    1.6340    0.0000 H       1  UNL1        0.0391
     63 H           8.7741    1.4070    0.0000 H       1  UNL1        0.0391
     64 H           9.0010    2.2540    0.0000 H       1  UNL1        0.0391
     65 H           9.0010    3.3660    0.0000 H       1  UNL1        0.0391
     66 H           8.7741    4.2130    0.0000 H       1  UNL1        0.0391
     67 H           7.9272    3.9860    0.0000 H       1  UNL1        0.0391
     68 H           4.2690   -1.3660    0.0000 H       1  UNL1        0.0625
     69 H           1.4631   -1.3660    0.0000 H       1  UNL1        0.0625
     70 H           3.7320   -3.6760    0.0000 H       1  UNL1        0.0782
     71 H           2.3291   -2.8660    0.0000 H       1  UNL1        0.0636
@<TRIPOS>BOND
     1     1     9    1
     2     1    23    1
     3     2    13    2
     4     3    18    2
     5     4    20    2
     6     5    10    1
     7     5    18   am
     8     5    40    1
     9     6    12    1
    10     6    13   am
    11     6    42    1
    12     7    19    1
    13     7    27    1
    14     7    28    1
    15     8    20   am
    16     8    32    1
    17     8    59    1
    18     9    10    1
    19     9    11    1
    20     9    34    1
    21    10    13    1
    22    10    35    1
    23    11    16    1
    24    11    17    1
    25    11    36    1
    26    12    14    1
    27    12    20    1
    28    12    37    1
    29    14    15    1
    30    14    38    1
    31    14    39    1
    32    15    21    1
    33    15    22    1
    34    15    41    1
    35    16    44    1
    36    16    45    1
    37    16    46    1
    38    17    43    1
    39    17    47    1
    40    17    48    1
    41    18    19    1
    42    19    24    1
    43    19    49    1
    44    21    53    1
    45    21    54    1
    46    21    55    1
    47    22    50    1
    48    22    51    1
    49    22    52    1
    50    23    25   ar
    51    23    26   ar
    52    24    56    1
    53    24    57    1
    54    24    58    1
    55    25    30   ar
    56    25    60    1
    57    26    31   ar
    58    26    61    1
    59    27    65    1
    60    27    66    1
    61    27    67    1
    62    28    62    1
    63    28    63    1
    64    28    64    1
    65    29    30   ar
    66    29    31   ar
    67    29    33    1
    68    30    68    1
    69    31    69    1
    70    32    33    2
    71    32    70    1
    72    33    71    1
