@<TRIPOS>MOLECULE
IMPHY004836
 54 57 0 0 0
SMALL
GASTEIGER

@<TRIPOS>ATOM
      1 O           5.1350   -1.4108    0.0000 O.3     1  UNL1       -0.3313
      2 O           6.8671   -1.4108    0.0000 O.3     1  UNL1       -0.4569
      3 O           5.1350   -4.4108    0.0000 O.3     1  UNL1       -0.3864
      4 O           3.4030   -3.4108    0.0000 O.3     1  UNL1       -0.3865
      5 O           6.8671   -3.4108    0.0000 O.3     1  UNL1       -0.3829
      6 O           2.5369   -1.9108    0.0000 O.3     1  UNL1       -0.3924
      7 O           8.6370   -0.3799    0.0000 O.3     1  UNL1       -0.4907
      8 O           9.4871    1.1483    0.0000 O.2     1  UNL1       -0.2864
      9 O           6.0308    3.1617    0.0000 O.2     1  UNL1       -0.2866
     10 O          10.3970    2.6417    0.0000 O.3     1  UNL1       -0.5060
     11 C           5.1350   -3.4108    0.0000 C.3     1  UNL1        0.1152
     12 C           4.2690   -2.9108    0.0000 C.3     1  UNL1        0.1120
     13 C           6.0010   -2.9108    0.0000 C.3     1  UNL1        0.1454
     14 C           4.2690   -1.9108    0.0000 C.3     1  UNL1        0.1140
     15 C           6.0010   -1.9108    0.0000 C.3     1  UNL1        0.2310
     16 C           3.4030   -1.4108    0.0000 C.3     1  UNL1        0.0731
     17 C           6.8671   -0.4108    0.0000 C.ar    1  UNL1        0.1690
     18 C           7.7671    0.1134    0.0000 C.ar    1  UNL1        0.1734
     19 C           5.9670    0.1134    0.0000 C.ar    1  UNL1       -0.0043
     20 C           7.7551    1.1550    0.0000 C.ar    1  UNL1        0.0784
     21 C           6.8910    1.6583    0.0000 C.ar    1  UNL1        0.0371
     22 C           5.9790    1.1550    0.0000 C.ar    1  UNL1       -0.0436
     23 C           8.6230    1.6517    0.0000 C.2     1  UNL1        0.2016
     24 C           6.8948    2.6583    0.0000 C.2     1  UNL1        0.1947
     25 C           8.6269    2.6517    0.0000 C.ar    1  UNL1        0.0745
     26 C           7.7628    3.1550    0.0000 C.ar    1  UNL1        0.0366
     27 C           5.0971   -0.3799    0.0000 C.3     1  UNL1       -0.0361
     28 C           9.5388    3.1550    0.0000 C.ar    1  UNL1        0.1283
     29 C           7.7508    4.1966    0.0000 C.ar    1  UNL1       -0.0500
     30 C           9.5509    4.1966    0.0000 C.ar    1  UNL1       -0.0194
     31 C           8.6508    4.7208    0.0000 C.ar    1  UNL1       -0.0576
     32 C           8.6447   -1.3798    0.0000 C.3     1  UNL1        0.0790
     33 H           5.6720   -3.7208    0.0000 H       1  UNL1        0.0648
     34 H           4.2690   -3.5308    0.0000 H       1  UNL1        0.0647
     35 H           6.5380   -2.6008    0.0000 H       1  UNL1        0.0683
     36 H           4.2690   -1.2908    0.0000 H       1  UNL1        0.0647
     37 H           6.0010   -1.2908    0.0000 H       1  UNL1        0.1084
     38 H           3.8015   -0.9359    0.0000 H       1  UNL1        0.0584
     39 H           3.0044   -0.9359    0.0000 H       1  UNL1        0.0584
     40 H           4.5981   -4.7208    0.0000 H       1  UNL1        0.2100
     41 H           3.4030   -4.0308    0.0000 H       1  UNL1        0.2100
     42 H           6.8671   -4.0308    0.0000 H       1  UNL1        0.2102
     43 H           5.4470    1.4732    0.0000 H       1  UNL1        0.0629
     44 H           2.0000   -1.6008    0.0000 H       1  UNL1        0.2095
     45 H           4.7913    0.1594    0.0000 H       1  UNL1        0.0279
     46 H           4.5578   -0.6857    0.0000 H       1  UNL1        0.0279
     47 H           5.4030   -0.9192    0.0000 H       1  UNL1        0.0279
     48 H           7.2114    4.5024    0.0000 H       1  UNL1        0.0625
     49 H          10.0902    4.5024    0.0000 H       1  UNL1        0.0654
     50 H           8.6508    5.3408    0.0000 H       1  UNL1        0.0619
     51 H           8.0247   -1.3846    0.0000 H       1  UNL1        0.0660
     52 H           8.6495   -1.9998    0.0000 H       1  UNL1        0.0660
     53 H           9.2647   -1.3751    0.0000 H       1  UNL1        0.0660
     54 H          10.9387    2.9434    0.0000 H       1  UNL1        0.2922
@<TRIPOS>BOND
     1     1    14    1
     2     1    15    1
     3    15     2    1
     4     2    17    1
     5    11     3    1
     6     3    40    1
     7    12     4    1
     8     4    41    1
     9    13     5    1
    10     5    42    1
    11     6    16    1
    12     6    44    1
    13     7    18    1
    14     7    32    1
    15     8    23    2
    16     9    24    2
    17    10    28    1
    18    10    54    1
    19    11    12    1
    20    11    13    1
    21    11    33    1
    22    12    14    1
    23    12    34    1
    24    13    15    1
    25    13    35    1
    26    14    16    1
    27    14    36    1
    28    15    37    1
    29    16    38    1
    30    16    39    1
    31    17    18   ar
    32    17    19   ar
    33    18    20   ar
    34    19    22   ar
    35    19    27    1
    36    20    21   ar
    37    20    23    1
    38    21    22   ar
    39    21    24    1
    40    22    43    1
    41    23    25    1
    42    24    26    1
    43    25    26   ar
    44    25    28   ar
    45    26    29   ar
    46    27    45    1
    47    27    46    1
    48    27    47    1
    49    28    30   ar
    50    29    31   ar
    51    29    48    1
    52    30    31   ar
    53    30    49    1
    54    31    50    1
    55    32    51    1
    56    32    52    1
    57    32    53    1
