@<TRIPOS>MOLECULE
IMPHY003131
 15 14 0 0 0
SMALL
GASTEIGER

@<TRIPOS>ATOM
      1 N           2.0000    1.0000    0.0000 N.1     1  UNL1       -0.1963
      2 C           3.7320    0.0000    0.0000 C.3     1  UNL1        0.0431
      3 C           4.5981    0.5000    0.0000 C.3     1  UNL1       -0.0405
      4 C           3.7320   -1.0000    0.0000 C.3     1  UNL1       -0.0495
      5 C           5.4641    0.0000    0.0000 C.3     1  UNL1       -0.0641
      6 C           2.8660    0.5000    0.0000 C.1     1  UNL1        0.0656
      7 H           3.7320    0.6200    0.0000 H       1  UNL1        0.0451
      8 H           4.9966    0.9749    0.0000 H       1  UNL1        0.0275
      9 H           4.1996    0.9749    0.0000 H       1  UNL1        0.0275
     10 H           3.1120   -1.0000    0.0000 H       1  UNL1        0.0242
     11 H           3.7320   -1.6200    0.0000 H       1  UNL1        0.0242
     12 H           4.3520   -1.0000    0.0000 H       1  UNL1        0.0242
     13 H           5.1541   -0.5369    0.0000 H       1  UNL1        0.0230
     14 H           6.0010   -0.3100    0.0000 H       1  UNL1        0.0230
     15 H           5.7741    0.5369    0.0000 H       1  UNL1        0.0230
@<TRIPOS>BOND
     1     1     6    3
     2     2     3    1
     3     2     4    1
     4     2     6    1
     5     2     7    1
     6     3     5    1
     7     3     8    1
     8     3     9    1
     9     4    10    1
    10     4    11    1
    11     4    12    1
    12     5    13    1
    13     5    14    1
    14     5    15    1
