@<TRIPOS>MOLECULE
IMPHY007318
 40 42 0 0 0
SMALL
GASTEIGER

@<TRIPOS>ATOM
      1 O           4.1331    2.6539    0.0000 O.2     1  UNL1       -0.3007
      2 C           4.5037   -1.2639    0.0000 C.3     1  UNL1       -0.0290
      3 C           5.3302   -1.8277    0.0000 C.3     1  UNL1       -0.0284
      4 C           5.4047   -0.8300    0.0000 C.3     1  UNL1       -0.0320
      5 C           3.6027   -0.8300    0.0000 C.3     1  UNL1       -0.0314
      6 C           3.3802    0.1449    0.0000 C.3     1  UNL1       -0.0284
      7 C           5.6272    0.1449    0.0000 C.3     1  UNL1       -0.0488
      8 C           2.7480   -1.3377    0.0000 C.3     1  UNL1       -0.0405
      9 C           4.0037    0.9267    0.0000 C.3     1  UNL1        0.0176
     10 C           2.3899    0.2314    0.0000 C.3     1  UNL1       -0.0491
     11 C           6.3274   -1.9024    0.0000 C.3     1  UNL1       -0.0593
     12 C           4.7668   -2.6539    0.0000 C.3     1  UNL1       -0.0593
     13 C           5.0037    0.9267    0.0000 C.3     1  UNL1       -0.0432
     14 C           2.0000   -0.6830    0.0000 C.3     1  UNL1       -0.0499
     15 C           2.6567   -2.3335    0.0000 C.3     1  UNL1       -0.0621
     16 C           3.5698    1.8277    0.0000 C.2     1  UNL1        0.1236
     17 H           4.1936   -1.8008    0.0000 H       1  UNL1        0.0312
     18 H           6.0178   -0.9224    0.0000 H       1  UNL1        0.0309
     19 H           3.6298   -1.4494    0.0000 H       1  UNL1        0.0309
     20 H           3.1358    0.7147    0.0000 H       1  UNL1        0.0310
     21 H           6.1858   -0.1241    0.0000 H       1  UNL1        0.0268
     22 H           6.0138    0.6296    0.0000 H       1  UNL1        0.0268
     23 H           3.2723   -1.6687    0.0000 H       1  UNL1        0.0301
     24 H           4.3336    1.4517    0.0000 H       1  UNL1        0.0377
     25 H           2.5085    0.8400    0.0000 H       1  UNL1        0.0268
     26 H           1.7972    0.4133    0.0000 H       1  UNL1        0.0268
     27 H           6.2810   -2.5207    0.0000 H       1  UNL1        0.0235
     28 H           6.9456   -1.9488    0.0000 H       1  UNL1        0.0235
     29 H           4.2546   -2.3047    0.0000 H       1  UNL1        0.0235
     30 H           4.4176   -3.1662    0.0000 H       1  UNL1        0.0235
     31 H           5.2791   -3.0032    0.0000 H       1  UNL1        0.0235
     32 H           6.3737   -1.2842    0.0000 H       1  UNL1        0.0235
     33 H           5.5623    1.1957    0.0000 H       1  UNL1        0.0272
     34 H           4.8657    1.5312    0.0000 H       1  UNL1        0.0272
     35 H           1.4584   -0.3812    0.0000 H       1  UNL1        0.0268
     36 H           1.6430   -1.1899    0.0000 H       1  UNL1        0.0268
     37 H           2.0393   -2.2768    0.0000 H       1  UNL1        0.0233
     38 H           2.6000   -2.9509    0.0000 H       1  UNL1        0.0233
     39 H           3.2741   -2.3901    0.0000 H       1  UNL1        0.0233
     40 H           2.9516    1.8740    0.0000 H       1  UNL1        0.1029
@<TRIPOS>BOND
     1     1    16    2
     2     2     3    1
     3     2     4    1
     4     2     5    1
     5     2    17    1
     6     3     4    1
     7     3    11    1
     8     3    12    1
     9     4     7    1
    10     4    18    1
    11     5     6    1
    12     5     8    1
    13     5    19    1
    14     6     9    1
    15     6    10    1
    16     6    20    1
    17     7    13    1
    18     7    21    1
    19     7    22    1
    20     8    14    1
    21     8    15    1
    22     8    23    1
    23     9    13    1
    24     9    16    1
    25     9    24    1
    26    10    14    1
    27    10    25    1
    28    10    26    1
    29    11    27    1
    30    11    28    1
    31    11    32    1
    32    12    29    1
    33    12    30    1
    34    12    31    1
    35    13    33    1
    36    13    34    1
    37    14    35    1
    38    14    36    1
    39    15    37    1
    40    15    38    1
    41    15    39    1
    42    16    40    1
