@<TRIPOS>MOLECULE
IMPHY010996
 47 49 0 0 0
SMALL
GASTEIGER

@<TRIPOS>ATOM
      1 O           5.1350   -0.3450    0.0000 O.3     1  UNL1       -0.3313
      2 O           6.8671   -0.3450    0.0000 O.3     1  UNL1       -0.4563
      3 O           5.1350   -3.3450    0.0000 O.3     1  UNL1       -0.3864
      4 O           3.4030   -2.3450    0.0000 O.3     1  UNL1       -0.3865
      5 O           6.8671   -2.3450    0.0000 O.3     1  UNL1       -0.3829
      6 O           2.5369   -0.8450    0.0000 O.3     1  UNL1       -0.3924
      7 O           5.1350    0.6550    0.0000 O.3     1  UNL1       -0.4885
      8 O           8.6270    2.6897    0.0000 O.2     1  UNL1       -0.4219
      9 O           5.1350    2.6550    0.0000 O.3     1  UNL1       -0.4912
     10 O          10.3972    2.6792    0.0000 O.2     1  UNL1       -0.2452
     11 C           5.1350   -2.3450    0.0000 C.3     1  UNL1        0.1152
     12 C           4.2690   -1.8450    0.0000 C.3     1  UNL1        0.1120
     13 C           6.0010   -1.8450    0.0000 C.3     1  UNL1        0.1454
     14 C           4.2690   -0.8450    0.0000 C.3     1  UNL1        0.1140
     15 C           6.0010   -0.8450    0.0000 C.3     1  UNL1        0.2310
     16 C           3.4030   -0.3450    0.0000 C.3     1  UNL1        0.0731
     17 C           6.8671    0.6550    0.0000 C.ar    1  UNL1        0.1797
     18 C           7.7331    1.1550    0.0000 C.ar    1  UNL1        0.0632
     19 C           6.0010    1.1550    0.0000 C.ar    1  UNL1        0.2045
     20 C           7.7331    2.1550    0.0000 C.ar    1  UNL1        0.1463
     21 C           6.0010    2.1550    0.0000 C.ar    1  UNL1        0.1687
     22 C           6.8671    2.6550    0.0000 C.ar    1  UNL1        0.0270
     23 C           8.6270    0.6203    0.0000 C.ar    1  UNL1       -0.0407
     24 C           9.5331    1.1342    0.0000 C.ar    1  UNL1        0.0237
     25 C           9.5331    2.1758    0.0000 C.ar    1  UNL1        0.3372
     26 C           4.2690    1.1550    0.0000 C.3     1  UNL1        0.0791
     27 C           5.1350    3.6550    0.0000 C.3     1  UNL1        0.0790
     28 H           5.6720   -2.6550    0.0000 H       1  UNL1        0.0648
     29 H           4.2690   -2.4650    0.0000 H       1  UNL1        0.0647
     30 H           6.5380   -1.5350    0.0000 H       1  UNL1        0.0683
     31 H           4.2690   -0.2250    0.0000 H       1  UNL1        0.0647
     32 H           6.0010   -0.2250    0.0000 H       1  UNL1        0.1084
     33 H           3.8015    0.1299    0.0000 H       1  UNL1        0.0584
     34 H           3.0044    0.1299    0.0000 H       1  UNL1        0.0584
     35 H           4.5981   -3.6550    0.0000 H       1  UNL1        0.2100
     36 H           3.4030   -2.9650    0.0000 H       1  UNL1        0.2100
     37 H           6.8671   -2.9650    0.0000 H       1  UNL1        0.2102
     38 H           2.0000   -0.5350    0.0000 H       1  UNL1        0.2095
     39 H           6.8671    3.2750    0.0000 H       1  UNL1        0.0692
     40 H           8.6199    0.0004    0.0000 H       1  UNL1        0.0628
     41 H          10.0688    0.8221    0.0000 H       1  UNL1        0.0689
     42 H           4.5790    1.6919    0.0000 H       1  UNL1        0.0660
     43 H           3.7320    1.4650    0.0000 H       1  UNL1        0.0660
     44 H           3.9590    0.6181    0.0000 H       1  UNL1        0.0660
     45 H           5.7550    3.6550    0.0000 H       1  UNL1        0.0660
     46 H           5.1350    4.2750    0.0000 H       1  UNL1        0.0660
     47 H           4.5150    3.6550    0.0000 H       1  UNL1        0.0660
@<TRIPOS>BOND
     1     1    14    1
     2     1    15    1
     3    15     2    1
     4     2    17    1
     5    11     3    1
     6     3    35    1
     7    12     4    1
     8     4    36    1
     9    13     5    1
    10     5    37    1
    11     6    16    1
    12     6    38    1
    13     7    19    1
    14     7    26    1
    15     8    20   ar
    16     8    25   ar
    17     9    21    1
    18     9    27    1
    19    10    25    2
    20    11    12    1
    21    11    13    1
    22    11    28    1
    23    12    14    1
    24    12    29    1
    25    13    15    1
    26    13    30    1
    27    14    16    1
    28    14    31    1
    29    15    32    1
    30    16    33    1
    31    16    34    1
    32    17    18   ar
    33    17    19   ar
    34    18    20   ar
    35    18    23   ar
    36    19    21   ar
    37    20    22   ar
    38    21    22   ar
    39    22    39    1
    40    23    24   ar
    41    23    40    1
    42    24    25   ar
    43    24    41    1
    44    26    42    1
    45    26    43    1
    46    26    44    1
    47    27    45    1
    48    27    46    1
    49    27    47    1
