@<TRIPOS>MOLECULE
IMPHY008864
 38 37 0 0 0
SMALL
GASTEIGER

@<TRIPOS>ATOM
      1 O           6.3301    0.2500    0.0000 O.3     1  UNL1       -0.4646
      2 O           7.1962   -1.2500    0.0000 O.2     1  UNL1       -0.2509
      3 C           2.8660    0.2500    0.0000 C.3     1  UNL1       -0.0466
      4 C           3.7320   -0.2500    0.0000 C.3     1  UNL1       -0.0476
      5 C           4.5981    0.2500    0.0000 C.3     1  UNL1       -0.0183
      6 C           9.7942    0.2500    0.0000 C.3     1  UNL1       -0.0462
      7 C           8.9282   -0.2500    0.0000 C.3     1  UNL1       -0.0406
      8 C           8.0622    0.2500    0.0000 C.3     1  UNL1        0.0452
      9 C           5.4641   -0.2500    0.0000 C.3     1  UNL1        0.0925
     10 C           2.0000   -0.2500    0.0000 C.3     1  UNL1       -0.0627
     11 C           2.8660    1.2500    0.0000 C.3     1  UNL1       -0.0627
     12 C          10.6603   -0.2500    0.0000 C.3     1  UNL1       -0.0627
     13 C           9.7942    1.2500    0.0000 C.3     1  UNL1       -0.0627
     14 C           7.1962   -0.2500    0.0000 C.2     1  UNL1        0.3071
     15 H           2.8660   -0.3700    0.0000 H       1  UNL1        0.0295
     16 H           3.3335   -0.7249    0.0000 H       1  UNL1        0.0269
     17 H           4.1306   -0.7249    0.0000 H       1  UNL1        0.0269
     18 H           4.9966    0.7249    0.0000 H       1  UNL1        0.0298
     19 H           4.1996    0.7249    0.0000 H       1  UNL1        0.0298
     20 H           9.2573    0.5600    0.0000 H       1  UNL1        0.0296
     21 H           8.5297   -0.7249    0.0000 H       1  UNL1        0.0273
     22 H           9.3267   -0.7249    0.0000 H       1  UNL1        0.0273
     23 H           8.4607    0.7249    0.0000 H       1  UNL1        0.0378
     24 H           7.6636    0.7249    0.0000 H       1  UNL1        0.0378
     25 H           5.0656   -0.7249    0.0000 H       1  UNL1        0.0697
     26 H           5.8626   -0.7249    0.0000 H       1  UNL1        0.0697
     27 H           3.4860    1.2500    0.0000 H       1  UNL1        0.0232
     28 H           2.8660    1.8700    0.0000 H       1  UNL1        0.0232
     29 H           2.2460    1.2500    0.0000 H       1  UNL1        0.0232
     30 H           1.6900    0.2869    0.0000 H       1  UNL1        0.0232
     31 H           1.4631   -0.5600    0.0000 H       1  UNL1        0.0232
     32 H           2.3100   -0.7869    0.0000 H       1  UNL1        0.0232
     33 H          10.4142    1.2500    0.0000 H       1  UNL1        0.0232
     34 H           9.7942    1.8700    0.0000 H       1  UNL1        0.0232
     35 H           9.1742    1.2500    0.0000 H       1  UNL1        0.0232
     36 H          10.3503   -0.7869    0.0000 H       1  UNL1        0.0232
     37 H          11.1972   -0.5600    0.0000 H       1  UNL1        0.0232
     38 H          10.9703    0.2869    0.0000 H       1  UNL1        0.0232
@<TRIPOS>BOND
     1     1     9    1
     2     1    14    1
     3     2    14    2
     4     3     4    1
     5     3    10    1
     6     3    11    1
     7     3    15    1
     8     4     5    1
     9     4    16    1
    10     4    17    1
    11     5     9    1
    12     5    18    1
    13     5    19    1
    14     6     7    1
    15     6    12    1
    16     6    13    1
    17     6    20    1
    18     7     8    1
    19     7    21    1
    20     7    22    1
    21     8    14    1
    22     8    23    1
    23     8    24    1
    24     9    25    1
    25     9    26    1
    26    10    30    1
    27    10    31    1
    28    10    32    1
    29    11    27    1
    30    11    28    1
    31    11    29    1
    32    12    36    1
    33    12    37    1
    34    12    38    1
    35    13    33    1
    36    13    34    1
    37    13    35    1
