@<TRIPOS>MOLECULE
IMPHY004460
 143 150 0 0 0
SMALL
GASTEIGER

@<TRIPOS>ATOM
      1 O           6.8671   -0.9488    0.0000 O.3     1  UNL1       -0.3454
      2 O          12.3209    6.2630    0.0000 O.3     1  UNL1       -0.3912
      3 O           4.4556    2.5713    0.0000 O.3     1  UNL1       -0.3945
      4 O           5.1350   -0.9488    0.0000 O.3     1  UNL1       -0.3315
      5 O           6.8671   -2.9488    0.0000 O.3     1  UNL1       -0.3377
      6 O           5.1350   -3.9488    0.0000 O.3     1  UNL1       -0.3864
      7 O           3.4030   -2.9488    0.0000 O.3     1  UNL1       -0.3860
      8 O           7.7331   -1.4488    0.0000 O.3     1  UNL1       -0.3405
      9 O           2.5369   -1.4488    0.0000 O.3     1  UNL1       -0.4788
     10 O           3.4030    0.0512    0.0000 O.2     1  UNL1       -0.2480
     11 O           8.5991   -3.9488    0.0000 O.3     1  UNL1       -0.3379
     12 O          10.3312   -2.9488    0.0000 O.3     1  UNL1       -0.3864
     13 O          10.3312   -0.9488    0.0000 O.3     1  UNL1       -0.3865
     14 O          10.3312   -3.9488    0.0000 O.3     1  UNL1       -0.3433
     15 O           9.4651    0.5512    0.0000 O.3     1  UNL1       -0.3924
     16 O           8.5991   -5.9488    0.0000 O.3     1  UNL1       -0.3867
     17 O          12.0632   -5.9488    0.0000 O.3     1  UNL1       -0.3892
     18 C           8.7037    3.2064    0.0000 C.3     1  UNL1       -0.0194
     19 C           8.6921    2.2065    0.0000 C.3     1  UNL1       -0.0257
     20 C           7.7920    1.6822    0.0000 C.3     1  UNL1       -0.0227
     21 C           9.5754    3.6964    0.0000 C.3     1  UNL1       -0.0051
     22 C           6.8920    2.2065    0.0000 C.3     1  UNL1       -0.0277
     23 C           7.8160    3.7514    0.0000 C.3     1  UNL1       -0.0463
     24 C          10.4356    3.1864    0.0000 C.2     1  UNL1       -0.0633
     25 C           6.9040    3.2481    0.0000 C.3     1  UNL1       -0.0486
     26 C           5.9421    1.6822    0.0000 C.3     1  UNL1       -0.0033
     27 C          11.3514    3.6827    0.0000 C.3     1  UNL1       -0.0111
     28 C          11.3715    4.7241    0.0000 C.3     1  UNL1        0.0005
     29 C           9.5523    1.6965    0.0000 C.3     1  UNL1       -0.0306
     30 C           9.5714    4.7380    0.0000 C.3     1  UNL1       -0.0428
     31 C           7.8046    0.5973    0.0000 C.3     1  UNL1       -0.0205
     32 C          10.4755    5.2553    0.0000 C.3     1  UNL1       -0.0439
     33 C           8.3726    4.1500    0.0000 C.3     1  UNL1       -0.0585
     34 C           5.9295    0.5973    0.0000 C.3     1  UNL1       -0.0187
     35 C           6.8671    0.0512    0.0000 C.3     1  UNL1        0.0629
     36 C          10.4241    2.1865    0.0000 C.2     1  UNL1       -0.0836
     37 C           8.6561    1.1789    0.0000 C.3     1  UNL1       -0.0589
     38 C           8.9415    4.4698    0.0000 C.3     1  UNL1       -0.0553
     39 C          12.2717    3.1079    0.0000 C.3     1  UNL1       -0.0406
     40 C          12.3132    5.2630    0.0000 C.3     1  UNL1        0.0616
     41 C          13.2256    3.6249    0.0000 C.3     1  UNL1       -0.0320
     42 C          13.2465    4.7097    0.0000 C.3     1  UNL1       -0.0211
     43 C           4.9422    1.6976    0.0000 C.3     1  UNL1        0.0499
     44 C           5.4555    2.5558    0.0000 C.3     1  UNL1       -0.0571
     45 C          11.3908    5.7240    0.0000 C.3     1  UNL1       -0.0567
     46 C          14.2253    3.6018    0.0000 C.3     1  UNL1       -0.0597
     47 C          13.7054    2.7475    0.0000 C.3     1  UNL1       -0.0597
     48 C           6.0010   -1.4488    0.0000 C.3     1  UNL1        0.1891
     49 C           6.0010   -2.4488    0.0000 C.3     1  UNL1        0.1407
     50 C           5.1350   -2.9488    0.0000 C.3     1  UNL1        0.1149
     51 C           4.2690   -1.4488    0.0000 C.3     1  UNL1        0.1859
     52 C           4.2690   -2.4488    0.0000 C.3     1  UNL1        0.1202
     53 C           7.7331   -2.4488    0.0000 C.3     1  UNL1        0.1889
     54 C           3.4030   -0.9488    0.0000 C.2     1  UNL1        0.3367
     55 C           8.5991   -2.9488    0.0000 C.3     1  UNL1        0.1406
     56 C           9.4651   -2.4488    0.0000 C.3     1  UNL1        0.1144
     57 C           8.5991   -0.9488    0.0000 C.3     1  UNL1        0.1130
     58 C           9.4651   -1.4488    0.0000 C.3     1  UNL1        0.1119
     59 C           8.5991    0.0512    0.0000 C.3     1  UNL1        0.0730
     60 C           9.4651   -4.4488    0.0000 C.3     1  UNL1        0.1860
     61 C           9.4651   -5.4488    0.0000 C.3     1  UNL1        0.1084
     62 C          10.3312   -5.9488    0.0000 C.3     1  UNL1        0.0065
     63 C          11.1972   -4.4488    0.0000 C.3     1  UNL1        0.0849
     64 C          11.1972   -5.4488    0.0000 C.3     1  UNL1        0.0837
     65 C          12.0632   -3.9488    0.0000 C.3     1  UNL1       -0.0361
     66 H           9.4331    2.6230    0.0000 H       1  UNL1        0.0315
     67 H           6.1625    2.6428    0.0000 H       1  UNL1        0.0312
     68 H           8.2260    4.2165    0.0000 H       1  UNL1        0.0271
     69 H           7.4279    4.2349    0.0000 H       1  UNL1        0.0271
     70 H           6.7017    3.8341    0.0000 H       1  UNL1        0.0268
     71 H           6.2920    3.1490    0.0000 H       1  UNL1        0.0268
     72 H          11.3252    2.8331    0.0000 H       1  UNL1        0.0352
     73 H           9.1483    1.2262    0.0000 H       1  UNL1        0.0310
     74 H           9.9453    1.2170    0.0000 H       1  UNL1        0.0310
     75 H           9.3601    5.3209    0.0000 H       1  UNL1        0.0274
     76 H           8.9610    4.6296    0.0000 H       1  UNL1        0.0274
     77 H           8.0204    0.0161    0.0000 H       1  UNL1        0.0296
     78 H           8.4142    0.7104    0.0000 H       1  UNL1        0.0296
     79 H          10.8783    5.7267    0.0000 H       1  UNL1        0.0272
     80 H          10.0800    5.7328    0.0000 H       1  UNL1        0.0272
     81 H           8.9576    4.3553    0.0000 H       1  UNL1        0.0235
     82 H           8.1672    4.7350    0.0000 H       1  UNL1        0.0235
     83 H           7.7875    3.9447    0.0000 H       1  UNL1        0.0235
     84 H           5.3199    0.7104    0.0000 H       1  UNL1        0.0296
     85 H           5.7137    0.0161    0.0000 H       1  UNL1        0.0296
     86 H           7.6040   -0.3724    0.0000 H       1  UNL1        0.0597
     87 H          10.9574    1.8703    0.0000 H       1  UNL1        0.0572
     88 H           8.3441    0.6431    0.0000 H       1  UNL1        0.0235
     89 H           9.1919    0.8668    0.0000 H       1  UNL1        0.0235
     90 H           8.9682    1.7146    0.0000 H       1  UNL1        0.0235
     91 H           9.4211    4.8628    0.0000 H       1  UNL1        0.0238
     92 H           8.5485    4.9493    0.0000 H       1  UNL1        0.0238
     93 H           8.4620    4.0768    0.0000 H       1  UNL1        0.0238
     94 H          11.8581    2.6460    0.0000 H       1  UNL1        0.0276
     95 H          12.6560    2.6214    0.0000 H       1  UNL1        0.0276
     96 H          13.0534    5.6809    0.0000 H       1  UNL1        0.0599
     97 H          13.8552    4.5918    0.0000 H       1  UNL1        0.0295
     98 H          13.4668    5.2892    0.0000 H       1  UNL1        0.0295
     99 H           4.3564    1.4946    0.0000 H       1  UNL1        0.0563
    100 H           5.0404    1.0855    0.0000 H       1  UNL1        0.0563
    101 H           5.9971    2.8575    0.0000 H       1  UNL1        0.0236
    102 H           5.1538    3.0975    0.0000 H       1  UNL1        0.0236
    103 H           4.9138    2.2542    0.0000 H       1  UNL1        0.0236
    104 H          12.0106    5.7120    0.0000 H       1  UNL1        0.0236
    105 H          11.4027    6.3438    0.0000 H       1  UNL1        0.0236
    106 H          10.7709    5.7359    0.0000 H       1  UNL1        0.0236
    107 H          14.2110    2.9819    0.0000 H       1  UNL1        0.0235
    108 H          14.8452    3.5874    0.0000 H       1  UNL1        0.0235
    109 H          14.2397    4.2216    0.0000 H       1  UNL1        0.0235
    110 H          13.1615    2.4500    0.0000 H       1  UNL1        0.0235
    111 H          14.0029    2.2036    0.0000 H       1  UNL1        0.0235
    112 H          14.2494    3.0450    0.0000 H       1  UNL1        0.0235
    113 H          12.8602    6.5688    0.0000 H       1  UNL1        0.2098
    114 H           3.8357    2.5808    0.0000 H       1  UNL1        0.2094
    115 H           6.5380   -1.7588    0.0000 H       1  UNL1        0.0938
    116 H           6.0010   -3.0688    0.0000 H       1  UNL1        0.0675
    117 H           4.5981   -3.2588    0.0000 H       1  UNL1        0.0648
    118 H           4.2690   -0.8288    0.0000 H       1  UNL1        0.0741
    119 H           3.5329   -2.0238    0.0000 H       1  UNL1        0.0652
    120 H           7.1962   -2.1388    0.0000 H       1  UNL1        0.0938
    121 H           4.5981   -4.2588    0.0000 H       1  UNL1        0.2100
    122 H           3.4030   -3.5688    0.0000 H       1  UNL1        0.2100
    123 H           8.0622   -3.2588    0.0000 H       1  UNL1        0.0675
    124 H          10.0021   -2.1388    0.0000 H       1  UNL1        0.0648
    125 H           8.0622   -0.6388    0.0000 H       1  UNL1        0.0647
    126 H           2.0000   -1.1388    0.0000 H       1  UNL1        0.2951
    127 H           9.4651   -0.8288    0.0000 H       1  UNL1        0.0647
    128 H           8.3871    0.6338    0.0000 H       1  UNL1        0.0584
    129 H           7.9885   -0.0565    0.0000 H       1  UNL1        0.0584
    130 H           8.9282   -4.7588    0.0000 H       1  UNL1        0.0937
    131 H          10.8681   -2.6388    0.0000 H       1  UNL1        0.2100
    132 H          10.8681   -1.2588    0.0000 H       1  UNL1        0.2100
    133 H           9.4651   -6.0688    0.0000 H       1  UNL1        0.0645
    134 H          10.0021    0.2412    0.0000 H       1  UNL1        0.2095
    135 H           9.9326   -6.4238    0.0000 H       1  UNL1        0.0317
    136 H          10.7297   -6.4238    0.0000 H       1  UNL1        0.0317
    137 H          11.1972   -3.8288    0.0000 H       1  UNL1        0.0620
    138 H          11.7341   -5.1388    0.0000 H       1  UNL1        0.0620
    139 H           8.5991   -6.5688    0.0000 H       1  UNL1        0.2100
    140 H          12.3732   -4.4858    0.0000 H       1  UNL1        0.0255
    141 H          12.6002   -3.6388    0.0000 H       1  UNL1        0.0255
    142 H          11.7532   -3.4119    0.0000 H       1  UNL1        0.0255
    143 H          12.6002   -5.6388    0.0000 H       1  UNL1        0.2099
@<TRIPOS>BOND
     1     1    35    1
     2    48     1    1
     3     2    40    1
     4     2   113    1
     5     3    43    1
     6     3   114    1
     7     4    48    1
     8     4    51    1
     9    49     5    1
    10    53     5    1
    11    50     6    1
    12     6   121    1
    13     7    52    1
    14     7   122    1
    15     8    53    1
    16     8    57    1
    17     9    54    1
    18     9   126    1
    19    10    54    2
    20    55    11    1
    21    60    11    1
    22    56    12    1
    23    12   131    1
    24    58    13    1
    25    13   132    1
    26    14    60    1
    27    14    63    1
    28    15    59    1
    29    15   134    1
    30    61    16    1
    31    16   139    1
    32    64    17    1
    33    17   143    1
    34    18    19    1
    35    18    21    1
    36    18    23    1
    37    18    33    1
    38    19    20    1
    39    19    29    1
    40    19    66    1
    41    20    22    1
    42    20    31    1
    43    20    37    1
    44    21    24    1
    45    21    30    1
    46    21    38    1
    47    22    25    1
    48    22    26    1
    49    22    67    1
    50    23    25    1
    51    23    68    1
    52    23    69    1
    53    24    27    1
    54    24    36    2
    55    25    70    1
    56    25    71    1
    57    26    34    1
    58    26    43    1
    59    26    44    1
    60    27    28    1
    61    27    39    1
    62    27    72    1
    63    28    32    1
    64    28    40    1
    65    28    45    1
    66    29    36    1
    67    29    73    1
    68    29    74    1
    69    30    32    1
    70    30    75    1
    71    30    76    1
    72    31    35    1
    73    31    77    1
    74    31    78    1
    75    32    79    1
    76    32    80    1
    77    33    81    1
    78    33    82    1
    79    33    83    1
    80    34    35    1
    81    34    84    1
    82    34    85    1
    83    35    86    1
    84    36    87    1
    85    37    88    1
    86    37    89    1
    87    37    90    1
    88    38    91    1
    89    38    92    1
    90    38    93    1
    91    39    41    1
    92    39    94    1
    93    39    95    1
    94    40    42    1
    95    40    96    1
    96    41    42    1
    97    41    46    1
    98    41    47    1
    99    42    97    1
   100    42    98    1
   101    43    99    1
   102    43   100    1
   103    44   101    1
   104    44   102    1
   105    44   103    1
   106    45   104    1
   107    45   105    1
   108    45   106    1
   109    46   107    1
   110    46   108    1
   111    46   109    1
   112    47   110    1
   113    47   111    1
   114    47   112    1
   115    48    49    1
   116    48   115    1
   117    49    50    1
   118    49   116    1
   119    50    52    1
   120    50   117    1
   121    51    52    1
   122    51    54    1
   123    51   118    1
   124    52   119    1
   125    53    55    1
   126    53   120    1
   127    55    56    1
   128    55   123    1
   129    56    58    1
   130    56   124    1
   131    57    58    1
   132    57    59    1
   133    57   125    1
   134    58   127    1
   135    59   128    1
   136    59   129    1
   137    60    61    1
   138    60   130    1
   139    61    62    1
   140    61   133    1
   141    62    64    1
   142    62   135    1
   143    62   136    1
   144    63    64    1
   145    63    65    1
   146    63   137    1
   147    64   138    1
   148    65   140    1
   149    65   141    1
   150    65   142    1
