@<TRIPOS>MOLECULE
IMPHY005076
 26 26 0 0 0
SMALL
GASTEIGER

@<TRIPOS>ATOM
      1 N           7.1962   -1.0000    0.0000 N.ar    1  UNL1       -0.2599
      2 C           4.5981   -0.5000    0.0000 C.3     1  UNL1       -0.0476
      3 C           3.7320   -1.0000    0.0000 C.3     1  UNL1       -0.0530
      4 C           5.4641   -1.0000    0.0000 C.3     1  UNL1       -0.0104
      5 C           2.8660   -0.5000    0.0000 C.3     1  UNL1       -0.0559
      6 C           6.3301   -0.5000    0.0000 C.ar    1  UNL1        0.0413
      7 C           2.0000   -1.0000    0.0000 C.3     1  UNL1       -0.0653
      8 C           6.3301    0.5000    0.0000 C.ar    1  UNL1       -0.0404
      9 C           7.1962    1.0000    0.0000 C.ar    1  UNL1       -0.0586
     10 C           8.0622   -0.5000    0.0000 C.ar    1  UNL1        0.0279
     11 C           8.0622    0.5000    0.0000 C.ar    1  UNL1       -0.0436
     12 H           4.9966   -0.0251    0.0000 H       1  UNL1        0.0269
     13 H           4.1996   -0.0251    0.0000 H       1  UNL1        0.0269
     14 H           3.3335   -1.4750    0.0000 H       1  UNL1        0.0265
     15 H           4.1306   -1.4750    0.0000 H       1  UNL1        0.0265
     16 H           5.0656   -1.4750    0.0000 H       1  UNL1        0.0328
     17 H           5.8626   -1.4750    0.0000 H       1  UNL1        0.0328
     18 H           3.2646   -0.0251    0.0000 H       1  UNL1        0.0263
     19 H           2.4675   -0.0251    0.0000 H       1  UNL1        0.0263
     20 H           1.6900   -0.4631    0.0000 H       1  UNL1        0.0230
     21 H           1.4631   -1.3100    0.0000 H       1  UNL1        0.0230
     22 H           2.3100   -1.5369    0.0000 H       1  UNL1        0.0230
     23 H           5.7932    0.8100    0.0000 H       1  UNL1        0.0635
     24 H           7.1962    1.6200    0.0000 H       1  UNL1        0.0619
     25 H           8.5991   -0.8100    0.0000 H       1  UNL1        0.0829
     26 H           8.5991    0.8100    0.0000 H       1  UNL1        0.0633
@<TRIPOS>BOND
     1     1     6   ar
     2     1    10   ar
     3     2     3    1
     4     2     4    1
     5     2    12    1
     6     2    13    1
     7     3     5    1
     8     3    14    1
     9     3    15    1
    10     4     6    1
    11     4    16    1
    12     4    17    1
    13     5     7    1
    14     5    18    1
    15     5    19    1
    16     6     8   ar
    17     7    20    1
    18     7    21    1
    19     7    22    1
    20     8     9   ar
    21     8    23    1
    22     9    11   ar
    23     9    24    1
    24    10    11   ar
    25    10    25    1
    26    11    26    1
