@<TRIPOS>MOLECULE
IMPHY006202
 49 50 0 0 0
SMALL
GASTEIGER

@<TRIPOS>ATOM
      1 O           5.3993   -2.8491    0.0000 O.3     1  UNL1       -0.4532
      2 O           4.4468    0.0717    0.0000 O.3     1  UNL1       -0.4570
      3 O           3.6451   -3.1289    0.0000 O.2     1  UNL1       -0.2453
      4 O           9.4701   -2.7509    0.0000 O.3     1  UNL1       -0.3907
      5 O           4.9821    1.7189    0.0000 O.2     1  UNL1       -0.2452
      6 O           2.1289    2.6460    0.0000 O.3     1  UNL1       -0.3902
      7 C           5.3979   -1.2374    0.0000 C.3     1  UNL1        0.0683
      8 C           5.3979   -0.2374    0.0000 C.3     1  UNL1        0.1177
      9 C           5.9857   -2.0464    0.0000 C.3     1  UNL1        0.1322
     10 C           5.9857    0.5717    0.0000 C.3     1  UNL1        0.0060
     11 C           4.4533   -1.5470    0.0000 C.2     1  UNL1        0.0400
     12 C           6.9367   -2.3554    0.0000 C.2     1  UNL1       -0.0418
     13 C           6.9367    0.8807    0.0000 C.2     1  UNL1       -0.0730
     14 C           4.4541   -2.5411    0.0000 C.2     1  UNL1        0.3357
     15 C           7.8878   -2.0464    0.0000 C.2     1  UNL1       -0.0447
     16 C           8.4756   -1.2374    0.0000 C.3     1  UNL1       -0.0260
     17 C           8.4756   -0.2374    0.0000 C.3     1  UNL1       -0.0308
     18 C           7.8878    0.5717    0.0000 C.2     1  UNL1       -0.0846
     19 C           3.6432   -0.9606    0.0000 C.2     1  UNL1       -0.0882
     20 C           6.9367    1.8807    0.0000 C.3     1  UNL1       -0.0437
     21 C           8.4756   -2.8554    0.0000 C.3     1  UNL1        0.0654
     22 C           4.2389    1.0498    0.0000 C.2     1  UNL1        0.3371
     23 C           3.2879    1.3588    0.0000 C.2     1  UNL1        0.0546
     24 C           3.0800    2.3370    0.0000 C.3     1  UNL1        0.0754
     25 C           2.5447    0.6897    0.0000 C.2     1  UNL1       -0.0865
     26 H           4.7096   -0.7386    0.0000 H       1  UNL1        0.0427
     27 H           5.2063    0.3523    0.0000 H       1  UNL1        0.0744
     28 H           6.2473   -2.8551    0.0000 H       1  UNL1        0.0787
     29 H           5.9857    1.1917    0.0000 H       1  UNL1        0.0346
     30 H           6.3501    0.0701    0.0000 H       1  UNL1        0.0346
     31 H           6.9367   -2.9754    0.0000 H       1  UNL1        0.0609
     32 H           8.8400   -1.7389    0.0000 H       1  UNL1        0.0314
     33 H           9.0652   -1.0458    0.0000 H       1  UNL1        0.0314
     34 H           9.0652   -0.4289    0.0000 H       1  UNL1        0.0310
     35 H           8.8400    0.2642    0.0000 H       1  UNL1        0.0310
     36 H           8.2522    1.0733    0.0000 H       1  UNL1        0.0572
     37 H           3.7070   -0.3439    0.0000 H       1  UNL1        0.0540
     38 H           3.0773   -1.2138    0.0000 H       1  UNL1        0.0540
     39 H           7.5567    1.8807    0.0000 H       1  UNL1        0.0274
     40 H           6.9367    2.5007    0.0000 H       1  UNL1        0.0274
     41 H           6.3167    1.8807    0.0000 H       1  UNL1        0.0274
     42 H           7.9183   -3.1272    0.0000 H       1  UNL1        0.0604
     43 H           8.6465   -3.4514    0.0000 H       1  UNL1        0.0604
     44 H           9.8345   -3.2524    0.0000 H       1  UNL1        0.2098
     45 H           3.6996    2.3586    0.0000 H       1  UNL1        0.0609
     46 H           3.1662    2.9509    0.0000 H       1  UNL1        0.0609
     47 H           1.9551    0.8813    0.0000 H       1  UNL1        0.0540
     48 H           2.6736    0.0832    0.0000 H       1  UNL1        0.0540
     49 H           2.0000    3.2524    0.0000 H       1  UNL1        0.2099
@<TRIPOS>BOND
     1     1     9    1
     2     1    14    1
     3     8     2    1
     4     2    22    1
     5     3    14    2
     6     4    21    1
     7     4    44    1
     8     5    22    2
     9     6    24    1
    10     6    49    1
    11     7     8    1
    12     7     9    1
    13     7    11    1
    14     7    26    1
    15     8    10    1
    16     8    27    1
    17     9    12    1
    18     9    28    1
    19    10    13    1
    20    10    29    1
    21    10    30    1
    22    11    14    1
    23    11    19    2
    24    12    15    2
    25    12    31    1
    26    13    18    2
    27    13    20    1
    28    15    16    1
    29    15    21    1
    30    16    17    1
    31    16    32    1
    32    16    33    1
    33    17    18    1
    34    17    34    1
    35    17    35    1
    36    18    36    1
    37    19    37    1
    38    19    38    1
    39    20    39    1
    40    20    40    1
    41    20    41    1
    42    21    42    1
    43    21    43    1
    44    22    23    1
    45    23    24    1
    46    23    25    2
    47    24    45    1
    48    24    46    1
    49    25    47    1
    50    25    48    1
