@<TRIPOS>MOLECULE
IMPHY016601
 45 47 0 0 0
SMALL
GASTEIGER

@<TRIPOS>ATOM
      1 O           5.3969   -0.8899    0.0000 O.3     1  UNL1       -0.4606
      2 O           3.8272   -0.1579    0.0000 O.2     1  UNL1       -0.2505
      3 C           7.1922    0.6084    0.0000 C.3     1  UNL1        0.0104
      4 C           6.7145    2.5570    0.0000 C.3     1  UNL1       -0.0232
      5 C           7.4511    1.5744    0.0000 C.3     1  UNL1       -0.0319
      6 C           5.8195    0.0164    0.0000 C.3     1  UNL1        0.1092
      7 C           8.5912    0.0996    0.0000 C.3     1  UNL1       -0.0435
      8 C           5.4775    0.9561    0.0000 C.3     1  UNL1       -0.0118
      9 C           8.8500    1.0656    0.0000 C.3     1  UNL1       -0.0490
     10 C           6.9334   -0.3575    0.0000 C.3     1  UNL1       -0.0557
     11 C           6.8190    3.5515    0.0000 C.3     1  UNL1       -0.0589
     12 C           5.8009    2.9637    0.0000 C.3     1  UNL1       -0.0589
     13 C           4.4007   -0.9770    0.0000 C.2     1  UNL1        0.3108
     14 C           3.9781   -1.8833    0.0000 C.3     1  UNL1        0.0604
     15 C           4.4629   -2.7580    0.0000 C.3     1  UNL1       -0.0361
     16 C           2.9965   -2.0742    0.0000 C.3     1  UNL1       -0.0191
     17 C           3.7809   -3.4893    0.0000 C.3     1  UNL1       -0.0312
     18 C           2.8746   -3.0667    0.0000 C.2     1  UNL1       -0.0758
     19 C           2.0000   -3.5515    0.0000 C.2     1  UNL1       -0.0994
     20 H           7.4370    0.9545    0.0000 H       1  UNL1        0.0307
     21 H           6.2515   -0.4283    0.0000 H       1  UNL1        0.0739
     22 H           8.3963   -0.4889    0.0000 H       1  UNL1        0.0272
     23 H           9.1852   -0.0781    0.0000 H       1  UNL1        0.0272
     24 H           5.2832    1.5449    0.0000 H       1  UNL1        0.0304
     25 H           4.8918    0.7529    0.0000 H       1  UNL1        0.0304
     26 H           9.4440    0.8878    0.0000 H       1  UNL1        0.0268
     27 H           9.0449    1.6541    0.0000 H       1  UNL1        0.0268
     28 H           6.3346   -0.1970    0.0000 H       1  UNL1        0.0236
     29 H           6.7730   -0.9564    0.0000 H       1  UNL1        0.0236
     30 H           7.5323   -0.5179    0.0000 H       1  UNL1        0.0236
     31 H           7.4356    3.4867    0.0000 H       1  UNL1        0.0235
     32 H           6.8838    4.1681    0.0000 H       1  UNL1        0.0235
     33 H           6.2024    3.6163    0.0000 H       1  UNL1        0.0235
     34 H           6.0531    3.5301    0.0000 H       1  UNL1        0.0235
     35 H           5.2345    3.2159    0.0000 H       1  UNL1        0.0235
     36 H           5.5487    2.3973    0.0000 H       1  UNL1        0.0235
     37 H           4.5977   -1.8617    0.0000 H       1  UNL1        0.0417
     38 H           4.8697   -3.2259    0.0000 H       1  UNL1        0.0276
     39 H           4.9708   -2.4024    0.0000 H       1  UNL1        0.0276
     40 H           2.9424   -1.4565    0.0000 H       1  UNL1        0.0318
     41 H           2.3766   -2.0633    0.0000 H       1  UNL1        0.0318
     42 H           3.4616   -4.0208    0.0000 H       1  UNL1        0.0310
     43 H           4.2761   -3.8624    0.0000 H       1  UNL1        0.0310
     44 H           1.4686   -3.2322    0.0000 H       1  UNL1        0.0534
     45 H           1.9892   -4.1714    0.0000 H       1  UNL1        0.0534
@<TRIPOS>BOND
     1     1     6    1
     2     1    13    1
     3     2    13    2
     4     3     4    1
     5     3     6    1
     6     3     7    1
     7     3    10    1
     8     4     5    1
     9     4    11    1
    10     4    12    1
    11     5     8    1
    12     5     9    1
    13     5    20    1
    14     6     8    1
    15     6    21    1
    16     7     9    1
    17     7    22    1
    18     7    23    1
    19     8    24    1
    20     8    25    1
    21     9    26    1
    22     9    27    1
    23    10    28    1
    24    10    29    1
    25    10    30    1
    26    11    31    1
    27    11    32    1
    28    11    33    1
    29    12    34    1
    30    12    35    1
    31    12    36    1
    32    13    14    1
    33    14    15    1
    34    14    16    1
    35    14    37    1
    36    15    17    1
    37    15    38    1
    38    15    39    1
    39    16    18    1
    40    16    40    1
    41    16    41    1
    42    17    18    1
    43    17    42    1
    44    17    43    1
    45    18    19    2
    46    19    44    1
    47    19    45    1
