@<TRIPOS>MOLECULE
IMPHY007292
 23 25 0 0 0
SMALL
GASTEIGER

@<TRIPOS>ATOM
      1 O           7.0140   -1.3047    0.0000 O.3     1  UNL1       -0.4526
      2 O           7.0140    0.3048    0.0000 O.3     1  UNL1       -0.4526
      3 O           3.4534    1.5346    0.0000 O.2     1  UNL1       -0.2702
      4 N           2.5357    0.0208    0.0000 N.am    1  UNL1       -0.3110
      5 C           4.3358   -1.0000    0.0000 C.ar    1  UNL1       -0.0301
      6 C           3.4418   -1.5346    0.0000 C.3     1  UNL1       -0.0112
      7 C           4.3358    0.0000    0.0000 C.ar    1  UNL1        0.0436
      8 C           2.5357   -1.0208    0.0000 C.3     1  UNL1        0.0159
      9 C           5.2018   -1.5000    0.0000 C.ar    1  UNL1       -0.0122
     10 C           6.0678   -1.0000    0.0000 C.ar    1  UNL1        0.1665
     11 C           6.0678    0.0000    0.0000 C.ar    1  UNL1        0.1670
     12 C           5.2018    0.5000    0.0000 C.ar    1  UNL1       -0.0038
     13 C           3.4418    0.5347    0.0000 C.2     1  UNL1        0.2445
     14 C           7.5976   -0.5000    0.0000 C.3     1  UNL1        0.2332
     15 H           3.0482   -2.0136    0.0000 H       1  UNL1        0.0329
     16 H           3.8464   -2.0044    0.0000 H       1  UNL1        0.0329
     17 H           1.9249   -0.9147    0.0000 H       1  UNL1        0.0465
     18 H           2.3267   -1.6045    0.0000 H       1  UNL1        0.0465
     19 H           5.2018   -2.1200    0.0000 H       1  UNL1        0.0658
     20 H           5.2018    1.1200    0.0000 H       1  UNL1        0.0663
     21 H           2.0000    0.3329    0.0000 H       1  UNL1        0.1490
     22 H           8.0585   -0.9147    0.0000 H       1  UNL1        0.1166
     23 H           8.0585   -0.0852    0.0000 H       1  UNL1        0.1166
@<TRIPOS>BOND
     1     1    10    1
     2     1    14    1
     3     2    11    1
     4     2    14    1
     5     3    13    2
     6     4     8    1
     7     4    13   am
     8     4    21    1
     9     5     6    1
    10     5     7   ar
    11     5     9   ar
    12     6     8    1
    13     6    15    1
    14     6    16    1
    15     7    12   ar
    16     7    13    1
    17     8    17    1
    18     8    18    1
    19     9    10   ar
    20     9    19    1
    21    10    11   ar
    22    11    12   ar
    23    12    20    1
    24    14    22    1
    25    14    23    1
