@<TRIPOS>MOLECULE
IMPHY001961
 18 17 0 0 0
SMALL
GASTEIGER

@<TRIPOS>ATOM
      1 O           3.7320    0.7500    0.0000 O.3     1  UNL1       -0.3774
      2 C           2.8660    0.2500    0.0000 C.3     1  UNL1        0.0531
      3 C           2.0000    0.7500    0.0000 C.3     1  UNL1       -0.0390
      4 C           2.8660   -0.7500    0.0000 C.3     1  UNL1       -0.0390
      5 C           4.5981    0.2500    0.0000 C.3     1  UNL1        0.0452
      6 C           5.4641    0.7500    0.0000 C.3     1  UNL1       -0.0416
      7 H           2.8660    0.8700    0.0000 H       1  UNL1        0.0590
      8 H           2.2460   -0.7500    0.0000 H       1  UNL1        0.0254
      9 H           2.8660   -1.3700    0.0000 H       1  UNL1        0.0254
     10 H           3.4860   -0.7500    0.0000 H       1  UNL1        0.0254
     11 H           2.3100    1.2869    0.0000 H       1  UNL1        0.0254
     12 H           1.4631    1.0600    0.0000 H       1  UNL1        0.0254
     13 H           1.6900    0.2131    0.0000 H       1  UNL1        0.0254
     14 H           4.1996   -0.2249    0.0000 H       1  UNL1        0.0557
     15 H           4.9966   -0.2249    0.0000 H       1  UNL1        0.0557
     16 H           5.7741    0.2131    0.0000 H       1  UNL1        0.0252
     17 H           6.0010    1.0600    0.0000 H       1  UNL1        0.0252
     18 H           5.1541    1.2869    0.0000 H       1  UNL1        0.0252
@<TRIPOS>BOND
     1     1     2    1
     2     1     5    1
     3     2     3    1
     4     2     4    1
     5     2     7    1
     6     3    11    1
     7     3    12    1
     8     3    13    1
     9     4     8    1
    10     4     9    1
    11     4    10    1
    12     5     6    1
    13     5    14    1
    14     5    15    1
    15     6    16    1
    16     6    17    1
    17     6    18    1
