@<TRIPOS>MOLECULE
IMPHY008443
 93 98 0 0 0
SMALL
GASTEIGER

@<TRIPOS>ATOM
      1 O           5.4679   -2.4015    0.0000 O.3     1  UNL1       -0.4573
      2 O           4.6077   -0.8982    0.0000 O.2     1  UNL1       -0.2450
      3 C           9.9950   -0.8491    0.0000 C.3     1  UNL1       -0.0231
      4 C          10.8610   -0.3491    0.0000 C.3     1  UNL1       -0.0233
      5 C           9.1290   -0.3491    0.0000 C.3     1  UNL1       -0.0294
      6 C          10.8610    0.6509    0.0000 C.3     1  UNL1       -0.0313
      7 C           8.2190   -0.8560    0.0000 C.3     1  UNL1       -0.0252
      8 C          11.7550    1.1855    0.0000 C.3     1  UNL1       -0.0258
      9 C          12.6610    0.6717    0.0000 C.3     1  UNL1       -0.0284
     10 C           8.2109   -1.8976    0.0000 C.3     1  UNL1       -0.0268
     11 C          11.7550   -0.8838    0.0000 C.3     1  UNL1       -0.0464
     12 C          10.0110   -1.8907    0.0000 C.3     1  UNL1       -0.0466
     13 C           9.1290    0.6509    0.0000 C.3     1  UNL1       -0.0489
     14 C           9.9950    1.1508    0.0000 C.3     1  UNL1       -0.0491
     15 C          12.6610   -0.3700    0.0000 C.3     1  UNL1       -0.0468
     16 C           9.1130   -2.4184    0.0000 C.3     1  UNL1       -0.0486
     17 C          11.9651    2.1994    0.0000 C.3     1  UNL1       -0.0168
     18 C           7.2755   -2.4473    0.0000 C.3     1  UNL1        0.0055
     19 C           7.2921   -0.2919    0.0000 C.3     1  UNL1       -0.0437
     20 C          10.6378   -1.6152    0.0000 C.3     1  UNL1       -0.0588
     21 C          11.2031   -1.2888    0.0000 C.3     1  UNL1       -0.0588
     22 C          13.4233    1.3724    0.0000 C.3     1  UNL1       -0.0468
     23 C          12.9941    2.3147    0.0000 C.3     1  UNL1       -0.0457
     24 C           8.2267    0.1440    0.0000 C.3     1  UNL1       -0.0590
     25 C           6.3359   -1.9048    0.0000 C.3     1  UNL1        0.1088
     26 C           6.3442   -0.8199    0.0000 C.3     1  UNL1       -0.0146
     27 C          13.5309    0.1784    0.0000 C.3     1  UNL1       -0.0593
     28 C           6.7788   -3.3153    0.0000 C.3     1  UNL1       -0.0562
     29 C           7.7788   -3.3114    0.0000 C.3     1  UNL1       -0.0562
     30 C          11.2915    2.9386    0.0000 C.2     1  UNL1       -0.0763
     31 C          11.5948    3.8914    0.0000 C.3     1  UNL1       -0.0438
     32 C          10.3146    2.7248    0.0000 C.2     1  UNL1       -0.0994
     33 C           4.6038   -1.8982    0.0000 C.2     1  UNL1        0.3395
     34 C           3.7359   -2.3948    0.0000 C.ar    1  UNL1        0.0590
     35 C           2.8718   -1.8915    0.0000 C.ar    1  UNL1       -0.0478
     36 C           3.7320   -3.3948    0.0000 C.ar    1  UNL1       -0.0478
     37 C           2.0038   -2.3881    0.0000 C.ar    1  UNL1       -0.0610
     38 C           2.8641   -3.8914    0.0000 C.ar    1  UNL1       -0.0610
     39 C           2.0000   -3.3881    0.0000 C.ar    1  UNL1       -0.0617
     40 H           9.8651    0.0759    0.0000 H       1  UNL1        0.0312
     41 H          10.8545    1.5008    0.0000 H       1  UNL1        0.0309
     42 H          11.0622    1.6780    0.0000 H       1  UNL1        0.0315
     43 H           8.2142   -2.7476    0.0000 H       1  UNL1        0.0312
     44 H          11.3504   -1.3536    0.0000 H       1  UNL1        0.0271
     45 H          12.1486   -1.3628    0.0000 H       1  UNL1        0.0271
     46 H          10.2291   -2.4710    0.0000 H       1  UNL1        0.0271
     47 H          10.6202   -1.7752    0.0000 H       1  UNL1        0.0271
     48 H           8.9169    1.2335    0.0000 H       1  UNL1        0.0268
     49 H           8.5184    0.5432    0.0000 H       1  UNL1        0.0268
     50 H          10.3935    1.6258    0.0000 H       1  UNL1        0.0268
     51 H           9.5965    1.6258    0.0000 H       1  UNL1        0.0268
     52 H          12.8701   -0.9537    0.0000 H       1  UNL1        0.0271
     53 H          13.2719   -0.2639    0.0000 H       1  UNL1        0.0271
     54 H           8.7157   -2.8944    0.0000 H       1  UNL1        0.0268
     55 H           9.5140   -2.8913    0.0000 H       1  UNL1        0.0268
     56 H          12.1835    2.7797    0.0000 H       1  UNL1        0.0348
     57 H           7.7003    0.1747    0.0000 H       1  UNL1        0.0272
     58 H           6.9022    0.1901    0.0000 H       1  UNL1        0.0272
     59 H          10.1628   -2.0137    0.0000 H       1  UNL1        0.0235
     60 H          11.0363   -2.0901    0.0000 H       1  UNL1        0.0235
     61 H          11.1127   -1.2167    0.0000 H       1  UNL1        0.0235
     62 H          10.6205   -1.5009    0.0000 H       1  UNL1        0.0235
     63 H          11.4152   -1.8714    0.0000 H       1  UNL1        0.0235
     64 H          11.7857   -1.0767    0.0000 H       1  UNL1        0.0235
     65 H          13.7926    0.8744    0.0000 H       1  UNL1        0.0271
     66 H          13.9574    1.6873    0.0000 H       1  UNL1        0.0271
     67 H          13.5822    2.5110    0.0000 H       1  UNL1        0.0271
     68 H          12.8607    2.9202    0.0000 H       1  UNL1        0.0271
     69 H           8.8466    0.1392    0.0000 H       1  UNL1        0.0235
     70 H           8.2314    0.7640    0.0000 H       1  UNL1        0.0235
     71 H           7.6067    0.1488    0.0000 H       1  UNL1        0.0235
     72 H           6.3347   -2.5248    0.0000 H       1  UNL1        0.0739
     73 H           6.1397   -0.2346    0.0000 H       1  UNL1        0.0301
     74 H           5.7326   -0.9212    0.0000 H       1  UNL1        0.0301
     75 H          13.2250   -0.3610    0.0000 H       1  UNL1        0.0235
     76 H          14.0702   -0.1275    0.0000 H       1  UNL1        0.0235
     77 H          13.8367    0.7177    0.0000 H       1  UNL1        0.0235
     78 H           7.2431   -3.6235    0.0000 H       1  UNL1        0.0236
     79 H           8.0909   -3.8472    0.0000 H       1  UNL1        0.0236
     80 H           8.3146   -2.9993    0.0000 H       1  UNL1        0.0236
     81 H           6.2407   -3.0073    0.0000 H       1  UNL1        0.0236
     82 H           6.4709   -3.8534    0.0000 H       1  UNL1        0.0236
     83 H           7.3170   -3.6232    0.0000 H       1  UNL1        0.0236
     84 H          12.1856    3.7034    0.0000 H       1  UNL1        0.0274
     85 H          11.7829    4.4822    0.0000 H       1  UNL1        0.0274
     86 H          11.0040    4.0795    0.0000 H       1  UNL1        0.0274
     87 H           9.8970    3.1831    0.0000 H       1  UNL1        0.0534
     88 H          10.1265    2.1340    0.0000 H       1  UNL1        0.0534
     89 H           2.8742   -1.2715    0.0000 H       1  UNL1        0.0626
     90 H           4.2678   -3.7069    0.0000 H       1  UNL1        0.0626
     91 H           1.4681   -2.0761    0.0000 H       1  UNL1        0.0618
     92 H           2.8617   -4.5114    0.0000 H       1  UNL1        0.0618
     93 H           1.4619   -3.6960    0.0000 H       1  UNL1        0.0618
@<TRIPOS>BOND
     1    25     1    1
     2     1    33    1
     3     2    33    2
     4     3     4    1
     5     3     5    1
     6     3    12    1
     7     3    20    1
     8     4     6    1
     9     4    11    1
    10     4    21    1
    11     5     7    1
    12     5    13    1
    13     5    40    1
    14     6     8    1
    15     6    14    1
    16     6    41    1
    17     7    10    1
    18     7    19    1
    19     7    24    1
    20     8     9    1
    21     8    17    1
    22     8    42    1
    23     9    15    1
    24     9    22    1
    25     9    27    1
    26    10    16    1
    27    10    18    1
    28    10    43    1
    29    11    15    1
    30    11    44    1
    31    11    45    1
    32    12    16    1
    33    12    46    1
    34    12    47    1
    35    13    14    1
    36    13    48    1
    37    13    49    1
    38    14    50    1
    39    14    51    1
    40    15    52    1
    41    15    53    1
    42    16    54    1
    43    16    55    1
    44    17    23    1
    45    17    30    1
    46    17    56    1
    47    18    25    1
    48    18    28    1
    49    18    29    1
    50    19    26    1
    51    19    57    1
    52    19    58    1
    53    20    59    1
    54    20    60    1
    55    20    61    1
    56    21    62    1
    57    21    63    1
    58    21    64    1
    59    22    23    1
    60    22    65    1
    61    22    66    1
    62    23    67    1
    63    23    68    1
    64    24    69    1
    65    24    70    1
    66    24    71    1
    67    25    26    1
    68    25    72    1
    69    26    73    1
    70    26    74    1
    71    27    75    1
    72    27    76    1
    73    27    77    1
    74    28    81    1
    75    28    82    1
    76    28    83    1
    77    29    78    1
    78    29    79    1
    79    29    80    1
    80    30    31    1
    81    30    32    2
    82    31    84    1
    83    31    85    1
    84    31    86    1
    85    32    87    1
    86    32    88    1
    87    33    34    1
    88    34    35   ar
    89    34    36   ar
    90    35    37   ar
    91    35    89    1
    92    36    38   ar
    93    36    90    1
    94    37    39   ar
    95    37    91    1
    96    38    39   ar
    97    38    92    1
    98    39    93    1
