@<TRIPOS>MOLECULE
IMPHY001695
 37 41 0 0 0
SMALL
GASTEIGER

@<TRIPOS>ATOM
      1 O           4.3798   -0.7829    0.0000 O.2     1  UNL1       -0.4539
      2 O           6.8686    2.9181    0.0000 O.3     1  UNL1       -0.4524
      3 O           5.4717    3.7175    0.0000 O.3     1  UNL1       -0.4489
      4 O           2.5836   -3.6291    0.0000 O.2     1  UNL1       -0.4628
      5 O           3.5342    2.7382    0.0000 O.3     1  UNL1       -0.4913
      6 O           7.0321   -2.3275    0.0000 O.2     1  UNL1       -0.2870
      7 C           4.3958   -1.8244    0.0000 C.ar    1  UNL1        0.1500
      8 C           5.2740    0.7449    0.0000 C.ar    1  UNL1        0.0245
      9 C           5.2619   -2.3244    0.0000 C.ar    1  UNL1        0.0648
     10 C           5.2778   -0.2551    0.0000 C.ar    1  UNL1        0.1395
     11 C           3.5298   -2.3244    0.0000 C.ar    1  UNL1        0.0630
     12 C           6.1342    2.2482    0.0000 C.ar    1  UNL1        0.1706
     13 C           5.2663    2.7449    0.0000 C.ar    1  UNL1        0.2076
     14 C           3.5298   -3.3244    0.0000 C.ar    1  UNL1        0.1383
     15 C           6.1381    1.2482    0.0000 C.ar    1  UNL1       -0.0052
     16 C           4.4060    1.2416    0.0000 C.ar    1  UNL1       -0.0054
     17 C           6.1719   -1.8175    0.0000 C.ar    1  UNL1        0.1931
     18 C           4.4022    2.2415    0.0000 C.ar    1  UNL1        0.1660
     19 C           6.1799   -0.7759    0.0000 C.ar    1  UNL1        0.0287
     20 C           5.2619   -3.3244    0.0000 C.ar    1  UNL1       -0.0439
     21 C           4.3958   -3.8244    0.0000 C.ar    1  UNL1       -0.0179
     22 C           2.5836   -2.0196    0.0000 C.ar    1  UNL1       -0.0126
     23 C           6.4600    3.8244    0.0000 C.3     1  UNL1        0.2334
     24 C           2.0000   -2.8244    0.0000 C.ar    1  UNL1        0.0932
     25 C           3.5304    3.7382    0.0000 C.3     1  UNL1        0.0790
     26 H           6.6762    0.9403    0.0000 H       1  UNL1        0.0662
     27 H           3.8703    0.9295    0.0000 H       1  UNL1        0.0662
     28 H           6.7180   -0.4680    0.0000 H       1  UNL1        0.0693
     29 H           5.7988   -3.6344    0.0000 H       1  UNL1        0.0627
     30 H           4.3958   -4.4444    0.0000 H       1  UNL1        0.0655
     31 H           2.3910   -1.4303    0.0000 H       1  UNL1        0.0656
     32 H           7.0489    4.0184    0.0000 H       1  UNL1        0.1166
     33 H           6.3290    4.4304    0.0000 H       1  UNL1        0.1166
     34 H           1.3800   -2.8244    0.0000 H       1  UNL1        0.1030
     35 H           4.1504    3.7406    0.0000 H       1  UNL1        0.0660
     36 H           3.5280    4.3582    0.0000 H       1  UNL1        0.0660
     37 H           2.9104    3.7358    0.0000 H       1  UNL1        0.0660
@<TRIPOS>BOND
     1     1     7   ar
     2     1    10   ar
     3     2    12    1
     4     2    23    1
     5     3    13    1
     6     3    23    1
     7     4    14   ar
     8     4    24   ar
     9     5    18    1
    10     5    25    1
    11     6    17    2
    12     7     9   ar
    13     7    11   ar
    14     8    10    1
    15     8    15   ar
    16     8    16   ar
    17     9    17   ar
    18     9    20   ar
    19    10    19   ar
    20    11    14   ar
    21    11    22   ar
    22    12    13   ar
    23    12    15   ar
    24    13    18   ar
    25    14    21   ar
    26    15    26    1
    27    16    18   ar
    28    16    27    1
    29    17    19   ar
    30    19    28    1
    31    20    21   ar
    32    20    29    1
    33    21    30    1
    34    22    24   ar
    35    22    31    1
    36    23    32    1
    37    23    33    1
    38    24    34    1
    39    25    35    1
    40    25    36    1
    41    25    37    1
