@<TRIPOS>MOLECULE
IMPHY002766
 74 79 0 0 0
SMALL
GASTEIGER

@<TRIPOS>ATOM
      1 O          10.1703    3.6550    0.0000 O.3     1  UNL1       -0.3918
      2 N           3.7630   -1.7242    0.0000 N.3     1  UNL1       -0.2956
      3 C           4.8304    0.5106    0.0000 C.3     1  UNL1       -0.0244
      4 C           5.6964    0.0106    0.0000 C.3     1  UNL1       -0.0308
      5 C           4.0934   -0.1565    0.0000 C.3     1  UNL1       -0.0157
      6 C           4.4985   -1.0643    0.0000 C.3     1  UNL1        0.0146
      7 C           6.5625    0.5106    0.0000 C.3     1  UNL1       -0.0343
      8 C           6.5625    1.5106    0.0000 C.3     1  UNL1       -0.0323
      9 C           5.4872   -0.9612    0.0000 C.3     1  UNL1       -0.0334
     10 C           3.1110   -0.2632    0.0000 C.3     1  UNL1       -0.0235
     11 C           4.8304    1.5106    0.0000 C.3     1  UNL1       -0.0468
     12 C           7.4564    2.0452    0.0000 C.3     1  UNL1       -0.0260
     13 C           2.9072   -1.2301    0.0000 C.3     1  UNL1        0.0136
     14 C           5.6964    2.0106    0.0000 C.3     1  UNL1       -0.0489
     15 C           7.4564   -0.0241    0.0000 C.3     1  UNL1       -0.0494
     16 C           8.3625    1.5314    0.0000 C.3     1  UNL1       -0.0330
     17 C           3.9644    1.0106    0.0000 C.3     1  UNL1       -0.0590
     18 C           8.3625    0.4898    0.0000 C.3     1  UNL1       -0.0494
     19 C           7.4313    3.1300    0.0000 C.3     1  UNL1       -0.0448
     20 C           3.7789   -2.7534    0.0000 C.3     1  UNL1        0.0020
     21 C           2.0079   -1.7310    0.0000 C.3     1  UNL1       -0.0368
     22 C           2.4399    0.4782    0.0000 C.3     1  UNL1       -0.0607
     23 C           9.3063    2.0666    0.0000 C.3     1  UNL1       -0.0235
     24 C           6.5866    2.5386    0.0000 C.3     1  UNL1       -0.0590
     25 C           2.8914   -3.2750    0.0000 C.3     1  UNL1       -0.0310
     26 C           2.0000   -2.7603    0.0000 C.3     1  UNL1       -0.0479
     27 C           8.3625    3.6869    0.0000 C.3     1  UNL1       -0.0263
     28 C           9.3063    3.1516    0.0000 C.3     1  UNL1        0.0555
     29 C           2.8953   -4.2750    0.0000 C.3     1  UNL1       -0.0613
     30 H           6.3834   -0.4899    0.0000 H       1  UNL1        0.0309
     31 H           3.7453    0.6190    0.0000 H       1  UNL1        0.0324
     32 H           4.8432   -1.8412    0.0000 H       1  UNL1        0.0466
     33 H           6.5559   -0.3394    0.0000 H       1  UNL1        0.0306
     34 H           7.3018    1.0913    0.0000 H       1  UNL1        0.0309
     35 H           5.4863   -1.5812    0.0000 H       1  UNL1        0.0283
     36 H           6.1037   -1.0273    0.0000 H       1  UNL1        0.0283
     37 H           2.5124   -0.4250    0.0000 H       1  UNL1        0.0317
     38 H           4.6184    2.0932    0.0000 H       1  UNL1        0.0271
     39 H           4.2198    1.4029    0.0000 H       1  UNL1        0.0271
     40 H           2.2230   -0.7258    0.0000 H       1  UNL1        0.0465
     41 H           6.0950    2.4855    0.0000 H       1  UNL1        0.0268
     42 H           5.2979    2.4855    0.0000 H       1  UNL1        0.0268
     43 H           7.0518   -0.4939    0.0000 H       1  UNL1        0.0268
     44 H           7.8500   -0.5031    0.0000 H       1  UNL1        0.0268
     45 H           9.0970    1.1036    0.0000 H       1  UNL1        0.0307
     46 H           4.2744    1.5475    0.0000 H       1  UNL1        0.0235
     47 H           3.4274    1.3206    0.0000 H       1  UNL1        0.0235
     48 H           3.6544    0.4737    0.0000 H       1  UNL1        0.0235
     49 H           8.5715   -0.0939    0.0000 H       1  UNL1        0.0268
     50 H           8.9733    0.5959    0.0000 H       1  UNL1        0.0268
     51 H           7.2088    3.7087    0.0000 H       1  UNL1        0.0271
     52 H           6.8231    3.0098    0.0000 H       1  UNL1        0.0271
     53 H           3.9969   -3.3338    0.0000 H       1  UNL1        0.0429
     54 H           4.3880   -2.6380    0.0000 H       1  UNL1        0.0429
     55 H           1.8034   -1.1457    0.0000 H       1  UNL1        0.0280
     56 H           1.3963   -1.8324    0.0000 H       1  UNL1        0.0280
     57 H           2.8996    0.8943    0.0000 H       1  UNL1        0.0233
     58 H           2.0239    0.9379    0.0000 H       1  UNL1        0.0233
     59 H           1.9802    0.0622    0.0000 H       1  UNL1        0.0233
     60 H           9.5153    1.4830    0.0000 H       1  UNL1        0.0293
     61 H           9.9171    2.1727    0.0000 H       1  UNL1        0.0293
     62 H           6.8924    3.0779    0.0000 H       1  UNL1        0.0235
     63 H           6.0472    2.8444    0.0000 H       1  UNL1        0.0235
     64 H           6.2807    1.9992    0.0000 H       1  UNL1        0.0235
     65 H           2.3551   -3.5860    0.0000 H       1  UNL1        0.0310
     66 H           1.3900   -2.6495    0.0000 H       1  UNL1        0.0269
     67 H           1.7864   -3.3424    0.0000 H       1  UNL1        0.0269
     68 H           8.7561    4.1659    0.0000 H       1  UNL1        0.0290
     69 H           7.9579    4.1567    0.0000 H       1  UNL1        0.0290
     70 H           9.3027    3.7716    0.0000 H       1  UNL1        0.0593
     71 H           2.2753   -4.2774    0.0000 H       1  UNL1        0.0233
     72 H           2.8977   -4.8950    0.0000 H       1  UNL1        0.0233
     73 H           3.5153   -4.2726    0.0000 H       1  UNL1        0.0233
     74 H          10.1680    4.2750    0.0000 H       1  UNL1        0.2098
@<TRIPOS>BOND
     1    28     1    1
     2     1    74    1
     3     2     6    1
     4     2    13    1
     5     2    20    1
     6     3     4    1
     7     3     5    1
     8     3    11    1
     9     3    17    1
    10     4     7    1
    11     4     9    1
    12     4    30    1
    13     5     6    1
    14     5    10    1
    15     5    31    1
    16     6     9    1
    17     6    32    1
    18     7     8    1
    19     7    15    1
    20     7    33    1
    21     8    12    1
    22     8    14    1
    23     8    34    1
    24     9    35    1
    25     9    36    1
    26    10    13    1
    27    10    22    1
    28    10    37    1
    29    11    14    1
    30    11    38    1
    31    11    39    1
    32    12    16    1
    33    12    19    1
    34    12    24    1
    35    13    21    1
    36    13    40    1
    37    14    41    1
    38    14    42    1
    39    15    18    1
    40    15    43    1
    41    15    44    1
    42    16    18    1
    43    16    23    1
    44    16    45    1
    45    17    46    1
    46    17    47    1
    47    17    48    1
    48    18    49    1
    49    18    50    1
    50    19    27    1
    51    19    51    1
    52    19    52    1
    53    20    25    1
    54    20    53    1
    55    20    54    1
    56    21    26    1
    57    21    55    1
    58    21    56    1
    59    22    57    1
    60    22    58    1
    61    22    59    1
    62    23    28    1
    63    23    60    1
    64    23    61    1
    65    24    62    1
    66    24    63    1
    67    24    64    1
    68    25    26    1
    69    25    29    1
    70    25    65    1
    71    26    66    1
    72    26    67    1
    73    27    28    1
    74    27    68    1
    75    27    69    1
    76    28    70    1
    77    29    71    1
    78    29    72    1
    79    29    73    1
