@<TRIPOS>MOLECULE
IMPHY002960
 67 71 0 0 0
SMALL
GASTEIGER

@<TRIPOS>ATOM
      1 O          10.4465    2.1390    0.0000 O.3     1  UNL1       -0.4562
      2 O           6.8671   -1.9029    0.0000 O.3     1  UNL1       -0.3408
      3 O           6.9141    2.1660    0.0000 O.2     1  UNL1       -0.2924
      4 O          11.2807    0.5777    0.0000 O.2     1  UNL1       -0.2505
      5 O           5.1350   -1.9029    0.0000 O.3     1  UNL1       -0.3405
      6 O           9.0701    5.2129    0.0000 O.2     1  UNL1       -0.4706
      7 O           6.8671   -3.9029    0.0000 O.3     1  UNL1       -0.3841
      8 O           5.1350   -4.9029    0.0000 O.3     1  UNL1       -0.3864
      9 O           3.4030   -3.9029    0.0000 O.3     1  UNL1       -0.3865
     10 O           2.5369   -2.4029    0.0000 O.3     1  UNL1       -0.3924
     11 C           8.6504    1.1113    0.0000 C.3     1  UNL1       -0.0051
     12 C           7.7671   -0.3786    0.0000 C.3     1  UNL1        0.0082
     13 C           7.7787    0.6213    0.0000 C.3     1  UNL1        0.0358
     14 C           9.5106    0.6013    0.0000 C.3     1  UNL1        0.0626
     15 C           8.6273   -0.8886    0.0000 C.3     1  UNL1       -0.0435
     16 C           9.4991   -0.3986    0.0000 C.3     1  UNL1       -0.0390
     17 C           8.6464    2.1529    0.0000 C.3     1  UNL1       -0.0045
     18 C           6.8671   -0.9029    0.0000 C.3     1  UNL1        0.0863
     19 C           7.7902    1.6213    0.0000 C.3     1  UNL1       -0.0580
     20 C           7.7556   -1.3785    0.0000 C.3     1  UNL1       -0.0562
     21 C           6.8910    1.1663    0.0000 C.2     1  UNL1        0.1601
     22 C           9.5505    2.6703    0.0000 C.3     1  UNL1        0.1315
     23 C          10.4264    1.0976    0.0000 C.2     1  UNL1        0.3113
     24 C           5.9670   -0.3786    0.0000 C.2     1  UNL1       -0.0517
     25 C           5.9790    0.6630    0.0000 C.2     1  UNL1       -0.0204
     26 C           9.5582    3.6702    0.0000 C.ar    1  UNL1        0.0304
     27 C           6.0010   -2.4029    0.0000 C.3     1  UNL1        0.1886
     28 C           6.0010   -3.4029    0.0000 C.3     1  UNL1        0.1341
     29 C           5.1350   -3.9029    0.0000 C.3     1  UNL1        0.1141
     30 C          10.3717    4.2518    0.0000 C.ar    1  UNL1       -0.0172
     31 C           8.7538    4.2642    0.0000 C.ar    1  UNL1        0.0983
     32 C           4.2690   -2.4029    0.0000 C.3     1  UNL1        0.1130
     33 C           4.2690   -3.4029    0.0000 C.3     1  UNL1        0.1119
     34 C          10.0701    5.2052    0.0000 C.ar    1  UNL1        0.0921
     35 C           3.4030   -1.9029    0.0000 C.3     1  UNL1        0.0730
     36 H           8.5098    0.1879    0.0000 H       1  UNL1        0.0392
     37 H          10.2384    0.1622    0.0000 H       1  UNL1        0.0419
     38 H           8.2233   -1.3589    0.0000 H       1  UNL1        0.0272
     39 H           9.0203   -1.3681    0.0000 H       1  UNL1        0.0272
     40 H           9.7044   -0.9836    0.0000 H       1  UNL1        0.0273
     41 H          10.1108   -0.2980    0.0000 H       1  UNL1        0.0273
     42 H           8.4351    2.7358    0.0000 H       1  UNL1        0.0310
     43 H           8.0360    2.0445    0.0000 H       1  UNL1        0.0310
     44 H           6.3295   -1.2118    0.0000 H       1  UNL1        0.0647
     45 H           8.1064    2.1546    0.0000 H       1  UNL1        0.0235
     46 H           7.2569    1.9375    0.0000 H       1  UNL1        0.0235
     47 H           7.4741    1.0880    0.0000 H       1  UNL1        0.0235
     48 H           7.1356   -1.3714    0.0000 H       1  UNL1        0.0236
     49 H           7.7484   -1.9985    0.0000 H       1  UNL1        0.0236
     50 H           8.3755   -1.3857    0.0000 H       1  UNL1        0.0236
     51 H          10.0904    2.9751    0.0000 H       1  UNL1        0.0786
     52 H           5.4277   -0.6844    0.0000 H       1  UNL1        0.0599
     53 H           5.4470    0.9812    0.0000 H       1  UNL1        0.0650
     54 H           6.0010   -1.7829    0.0000 H       1  UNL1        0.0938
     55 H           6.0010   -4.0229    0.0000 H       1  UNL1        0.0671
     56 H           4.5981   -4.2129    0.0000 H       1  UNL1        0.0648
     57 H          10.9599    4.0556    0.0000 H       1  UNL1        0.0653
     58 H           4.2690   -1.7829    0.0000 H       1  UNL1        0.0647
     59 H           8.1626    4.0772    0.0000 H       1  UNL1        0.1033
     60 H           3.7320   -3.0929    0.0000 H       1  UNL1        0.0647
     61 H          10.4383    5.7039    0.0000 H       1  UNL1        0.1029
     62 H           3.8015   -1.4279    0.0000 H       1  UNL1        0.0584
     63 H           3.0044   -1.4279    0.0000 H       1  UNL1        0.0584
     64 H           6.8671   -4.5229    0.0000 H       1  UNL1        0.2101
     65 H           4.5981   -5.2129    0.0000 H       1  UNL1        0.2100
     66 H           3.4030   -4.5229    0.0000 H       1  UNL1        0.2100
     67 H           2.0000   -2.0929    0.0000 H       1  UNL1        0.2095
@<TRIPOS>BOND
     1     1    22    1
     2     1    23    1
     3    18     2    1
     4    27     2    1
     5     3    21    2
     6     4    23    2
     7     5    27    1
     8     5    32    1
     9     6    31   ar
    10     6    34   ar
    11    28     7    1
    12     7    64    1
    13    29     8    1
    14     8    65    1
    15    33     9    1
    16     9    66    1
    17    10    35    1
    18    10    67    1
    19    11    13    1
    20    11    14    1
    21    11    17    1
    22    11    19    1
    23    12    13    1
    24    12    15    1
    25    12    18    1
    26    12    20    1
    27    13    21    1
    28    13    36    1
    29    14    16    1
    30    14    23    1
    31    14    37    1
    32    15    16    1
    33    15    38    1
    34    15    39    1
    35    16    40    1
    36    16    41    1
    37    17    22    1
    38    17    42    1
    39    17    43    1
    40    18    24    1
    41    18    44    1
    42    19    45    1
    43    19    46    1
    44    19    47    1
    45    20    48    1
    46    20    49    1
    47    20    50    1
    48    21    25    1
    49    22    26    1
    50    22    51    1
    51    24    25    2
    52    24    52    1
    53    25    53    1
    54    26    30   ar
    55    26    31   ar
    56    27    28    1
    57    27    54    1
    58    28    29    1
    59    28    55    1
    60    29    33    1
    61    29    56    1
    62    30    34   ar
    63    30    57    1
    64    31    59    1
    65    32    33    1
    66    32    35    1
    67    32    58    1
    68    33    60    1
    69    34    61    1
    70    35    62    1
    71    35    63    1
