@<TRIPOS>MOLECULE
IMPHY000542
 121 126 0 0 0
SMALL
GASTEIGER

@<TRIPOS>ATOM
      1 O          12.2583   -1.8143    0.0000 O.3     1  UNL1       -0.3335
      2 O          13.2583   -2.8143    0.0000 O.3     1  UNL1       -0.3108
      3 O          11.5263   -2.8143    0.0000 O.3     1  UNL1       -0.3393
      4 O          14.5184   -0.5542    0.0000 O.3     1  UNL1       -0.4500
      5 O          12.7583    0.7246    0.0000 O.3     1  UNL1       -0.3852
      6 O          14.9525   -1.4542    0.0000 O.3     1  UNL1       -0.4560
      7 O          13.2583   -4.8143    0.0000 O.3     1  UNL1       -0.3841
      8 O          11.5263   -5.8143    0.0000 O.3     1  UNL1       -0.3864
      9 O           9.7942   -4.8143    0.0000 O.3     1  UNL1       -0.3864
     10 O          10.7903    0.4239    0.0000 O.3     1  UNL1       -0.4589
     11 O           8.9282   -3.3143    0.0000 O.3     1  UNL1       -0.4589
     12 O          13.9832    1.0931    0.0000 O.2     1  UNL1       -0.2456
     13 O          16.1115   -2.7413    0.0000 O.2     1  UNL1       -0.2456
     14 O           9.0961    0.0638    0.0000 O.2     1  UNL1       -0.2456
     15 O           8.0622   -1.8143    0.0000 O.2     1  UNL1       -0.2456
     16 O          19.6895    2.9472    0.0000 O.3     1  UNL1       -0.5068
     17 O          20.9862   -0.6829    0.0000 O.3     1  UNL1       -0.4914
     18 O          20.5704    1.2734    0.0000 O.3     1  UNL1       -0.5033
     19 O           7.8487    5.9327    0.0000 O.3     1  UNL1       -0.5068
     20 O           2.8660   -2.8143    0.0000 O.3     1  UNL1       -0.4914
     21 O           2.8660   -4.8143    0.0000 O.3     1  UNL1       -0.5033
     22 C          13.2583   -1.8143    0.0000 C.3     1  UNL1        0.2481
     23 C          13.5673   -0.8632    0.0000 C.3     1  UNL1        0.1884
     24 C          12.7583   -0.2754    0.0000 C.3     1  UNL1        0.1266
     25 C          11.9493   -0.8632    0.0000 C.3     1  UNL1        0.1255
     26 C          12.3923   -3.3143    0.0000 C.3     1  UNL1        0.1914
     27 C          12.3923   -4.3143    0.0000 C.3     1  UNL1        0.1342
     28 C          14.2094   -2.1233    0.0000 C.3     1  UNL1        0.1504
     29 C          11.5263   -4.8143    0.0000 C.3     1  UNL1        0.1141
     30 C          10.6603   -4.3143    0.0000 C.3     1  UNL1        0.1129
     31 C          10.6603   -3.3143    0.0000 C.3     1  UNL1        0.1240
     32 C          10.9983   -0.5542    0.0000 C.3     1  UNL1        0.1215
     33 C           9.7942   -2.8143    0.0000 C.3     1  UNL1        0.1215
     34 C          14.7263    0.4239    0.0000 C.2     1  UNL1        0.3325
     35 C          15.9036   -1.7632    0.0000 C.2     1  UNL1        0.3321
     36 C           9.8393    0.7329    0.0000 C.2     1  UNL1        0.3320
     37 C          15.6774    0.7329    0.0000 C.2     1  UNL1        0.0231
     38 C           8.0622   -2.8143    0.0000 C.2     1  UNL1        0.3320
     39 C          16.6467   -1.0941    0.0000 C.2     1  UNL1        0.0231
     40 C           9.6314    1.7111    0.0000 C.2     1  UNL1        0.0231
     41 C          15.8853    1.7111    0.0000 C.2     1  UNL1       -0.0478
     42 C          17.5978   -1.4031    0.0000 C.2     1  UNL1       -0.0477
     43 C           7.1962   -3.3143    0.0000 C.2     1  UNL1        0.0231
     44 C          16.8363    2.0201    0.0000 C.ar    1  UNL1       -0.0246
     45 C           8.6803    2.0201    0.0000 C.2     1  UNL1       -0.0478
     46 C          18.3409   -0.7340    0.0000 C.ar    1  UNL1       -0.0211
     47 C           6.3301   -2.8143    0.0000 C.2     1  UNL1       -0.0477
     48 C          17.5795    1.3510    0.0000 C.ar    1  UNL1       -0.0511
     49 C          17.0443    2.9983    0.0000 C.ar    1  UNL1       -0.0511
     50 C           8.4724    2.9983    0.0000 C.ar    1  UNL1       -0.0246
     51 C          19.2920   -1.0430    0.0000 C.ar    1  UNL1       -0.0092
     52 C          18.1330    0.2442    0.0000 C.ar    1  UNL1       -0.0509
     53 C           5.4641   -3.3143    0.0000 C.ar    1  UNL1       -0.0211
     54 C          18.5305    1.6600    0.0000 C.ar    1  UNL1       -0.0196
     55 C          17.9953    3.3073    0.0000 C.ar    1  UNL1       -0.0196
     56 C           9.2156    3.6674    0.0000 C.ar    1  UNL1       -0.0511
     57 C           7.5214    3.3073    0.0000 C.ar    1  UNL1       -0.0511
     58 C          18.7385    2.6381    0.0000 C.ar    1  UNL1        0.1169
     59 C          20.0351   -0.3738    0.0000 C.ar    1  UNL1        0.1618
     60 C          18.8762    0.9133    0.0000 C.ar    1  UNL1       -0.0160
     61 C           4.5981   -2.8143    0.0000 C.ar    1  UNL1       -0.0092
     62 C           5.4641   -4.3143    0.0000 C.ar    1  UNL1       -0.0509
     63 C          19.8272    0.6043    0.0000 C.ar    1  UNL1        0.1585
     64 C           9.0076    4.6455    0.0000 C.ar    1  UNL1       -0.0196
     65 C           7.3134    4.2854    0.0000 C.ar    1  UNL1       -0.0196
     66 C           8.0566    4.9546    0.0000 C.ar    1  UNL1        0.1169
     67 C           3.7320   -3.3143    0.0000 C.ar    1  UNL1        0.1618
     68 C           4.5981   -4.8143    0.0000 C.ar    1  UNL1       -0.0160
     69 C           3.7320   -4.3143    0.0000 C.ar    1  UNL1        0.1585
     70 C          21.1941   -1.6610    0.0000 C.3     1  UNL1        0.0790
     71 C           2.0000   -3.3143    0.0000 C.3     1  UNL1        0.0790
     72 H          14.0058   -1.3016    0.0000 H       1  UNL1        0.0817
     73 H          13.3108    0.0060    0.0000 H       1  UNL1        0.0659
     74 H          11.5109   -1.3016    0.0000 H       1  UNL1        0.0658
     75 H          12.9292   -3.6243    0.0000 H       1  UNL1        0.0939
     76 H          12.3923   -4.9343    0.0000 H       1  UNL1        0.0671
     77 H          13.9183   -2.6707    0.0000 H       1  UNL1        0.0753
     78 H          14.6980   -2.5050    0.0000 H       1  UNL1        0.0753
     79 H          10.9893   -5.1243    0.0000 H       1  UNL1        0.0648
     80 H          10.1233   -4.0043    0.0000 H       1  UNL1        0.0647
     81 H          10.6603   -2.6943    0.0000 H       1  UNL1        0.0658
     82 H          10.3786   -0.5759    0.0000 H       1  UNL1        0.0725
     83 H          10.9120   -1.1682    0.0000 H       1  UNL1        0.0725
     84 H          12.2214    1.0346    0.0000 H       1  UNL1        0.2101
     85 H          10.1928   -2.3393    0.0000 H       1  UNL1        0.0725
     86 H           9.3957   -2.3393    0.0000 H       1  UNL1        0.0725
     87 H          13.2583   -5.4343    0.0000 H       1  UNL1        0.2101
     88 H          10.9893   -6.1243    0.0000 H       1  UNL1        0.2100
     89 H           9.7942   -5.4343    0.0000 H       1  UNL1        0.2100
     90 H          16.1381    0.3181    0.0000 H       1  UNL1        0.0689
     91 H          16.5178   -0.4876    0.0000 H       1  UNL1        0.0689
     92 H          10.0921    2.1260    0.0000 H       1  UNL1        0.0689
     93 H          15.4245    2.1260    0.0000 H       1  UNL1        0.0626
     94 H           7.1962   -3.9343    0.0000 H       1  UNL1        0.0689
     95 H          17.7267   -2.0095    0.0000 H       1  UNL1        0.0626
     96 H           8.2196    1.6052    0.0000 H       1  UNL1        0.0626
     97 H           6.3301   -2.1943    0.0000 H       1  UNL1        0.0626
     98 H          17.4506    0.7445    0.0000 H       1  UNL1        0.0625
     99 H          16.5835    3.4131    0.0000 H       1  UNL1        0.0625
    100 H          19.4209   -1.6494    0.0000 H       1  UNL1        0.0661
    101 H          17.5434    0.4358    0.0000 H       1  UNL1        0.0625
    102 H          18.9913    1.2451    0.0000 H       1  UNL1        0.0654
    103 H          18.1242    3.9137    0.0000 H       1  UNL1        0.0654
    104 H           9.8052    3.4758    0.0000 H       1  UNL1        0.0625
    105 H           7.0606    2.8924    0.0000 H       1  UNL1        0.0625
    106 H          18.7473    1.5198    0.0000 H       1  UNL1        0.0655
    107 H           4.5981   -2.1943    0.0000 H       1  UNL1        0.0661
    108 H           6.0010   -4.6243    0.0000 H       1  UNL1        0.0625
    109 H           9.4684    5.0604    0.0000 H       1  UNL1        0.0654
    110 H           6.7238    4.4770    0.0000 H       1  UNL1        0.0654
    111 H           4.5981   -5.4343    0.0000 H       1  UNL1        0.0655
    112 H          19.8184    3.5536    0.0000 H       1  UNL1        0.2921
    113 H          21.1600    1.0818    0.0000 H       1  UNL1        0.2923
    114 H           7.2590    6.1243    0.0000 H       1  UNL1        0.2921
    115 H          20.5877   -1.7899    0.0000 H       1  UNL1        0.0660
    116 H          21.3230   -2.2675    0.0000 H       1  UNL1        0.0660
    117 H          21.8006   -1.5321    0.0000 H       1  UNL1        0.0660
    118 H           2.8660   -5.4343    0.0000 H       1  UNL1        0.2923
    119 H           1.6900   -2.7774    0.0000 H       1  UNL1        0.0660
    120 H           1.4631   -3.6243    0.0000 H       1  UNL1        0.0660
    121 H           2.3100   -3.8512    0.0000 H       1  UNL1        0.0660
@<TRIPOS>BOND
     1     1    22    1
     2     1    25    1
     3    22     2    1
     4    26     2    1
     5     3    26    1
     6     3    31    1
     7    23     4    1
     8     4    34    1
     9    24     5    1
    10     5    84    1
    11     6    28    1
    12     6    35    1
    13    27     7    1
    14     7    87    1
    15    29     8    1
    16     8    88    1
    17    30     9    1
    18     9    89    1
    19    10    32    1
    20    10    36    1
    21    11    33    1
    22    11    38    1
    23    12    34    2
    24    13    35    2
    25    14    36    2
    26    15    38    2
    27    16    58    1
    28    16   112    1
    29    17    59    1
    30    17    70    1
    31    18    63    1
    32    18   113    1
    33    19    66    1
    34    19   114    1
    35    20    67    1
    36    20    71    1
    37    21    69    1
    38    21   118    1
    39    22    23    1
    40    22    28    1
    41    23    24    1
    42    23    72    1
    43    24    25    1
    44    24    73    1
    45    25    32    1
    46    25    74    1
    47    26    27    1
    48    26    75    1
    49    27    29    1
    50    27    76    1
    51    28    77    1
    52    28    78    1
    53    29    30    1
    54    29    79    1
    55    30    31    1
    56    30    80    1
    57    31    33    1
    58    31    81    1
    59    32    82    1
    60    32    83    1
    61    33    85    1
    62    33    86    1
    63    34    37    1
    64    35    39    1
    65    36    40    1
    66    37    41    2
    67    37    90    1
    68    38    43    1
    69    39    42    2
    70    39    91    1
    71    40    45    2
    72    40    92    1
    73    41    44    1
    74    41    93    1
    75    42    46    1
    76    42    95    1
    77    43    47    2
    78    43    94    1
    79    44    48   ar
    80    44    49   ar
    81    45    50    1
    82    45    96    1
    83    46    51   ar
    84    46    52   ar
    85    47    53    1
    86    47    97    1
    87    48    54   ar
    88    48    98    1
    89    49    55   ar
    90    49    99    1
    91    50    56   ar
    92    50    57   ar
    93    51    59   ar
    94    51   100    1
    95    52    60   ar
    96    52   101    1
    97    53    61   ar
    98    53    62   ar
    99    54    58   ar
   100    54   102    1
   101    55    58   ar
   102    55   103    1
   103    56    64   ar
   104    56   104    1
   105    57    65   ar
   106    57   105    1
   107    59    63   ar
   108    60    63   ar
   109    60   106    1
   110    61    67   ar
   111    61   107    1
   112    62    68   ar
   113    62   108    1
   114    64    66   ar
   115    64   109    1
   116    65    66   ar
   117    65   110    1
   118    67    69   ar
   119    68    69   ar
   120    68   111    1
   121    70   115    1
   122    70   116    1
   123    70   117    1
   124    71   119    1
   125    71   120    1
   126    71   121    1
