@<TRIPOS>MOLECULE
IMPHY002048
 62 64 0 0 0
SMALL
GASTEIGER

@<TRIPOS>ATOM
      1 O           8.0901   -0.2847    0.0000 O.3     1  UNL1       -0.4824
      2 O           6.3301    2.7500    0.0000 O.3     1  UNL1       -0.4942
      3 O           4.5981   -0.2500    0.0000 O.3     1  UNL1       -0.5063
      4 O           8.0785    2.7846    0.0000 O.2     1  UNL1       -0.2917
      5 O           8.9884   -1.7708    0.0000 O.3     1  UNL1       -0.5063
      6 O          12.4525   -1.7842    0.0000 O.3     1  UNL1       -0.5066
      7 C           5.4641   -1.7500    0.0000 C.3     1  UNL1       -0.0128
      8 C           6.3301   -1.2500    0.0000 C.3     1  UNL1       -0.0139
      9 C           6.3301   -0.2500    0.0000 C.ar    1  UNL1        0.0371
     10 C           7.1962    0.2500    0.0000 C.ar    1  UNL1        0.1420
     11 C           8.9962    0.2292    0.0000 C.3     1  UNL1        0.1355
     12 C           7.1962    1.2500    0.0000 C.ar    1  UNL1        0.1012
     13 C           8.9962    1.2708    0.0000 C.3     1  UNL1        0.0521
     14 C           4.5981   -1.2500    0.0000 C.3     1  UNL1       -0.0277
     15 C           8.0901    1.7847    0.0000 C.2     1  UNL1        0.1740
     16 C           5.4641   -2.7500    0.0000 C.2     1  UNL1       -0.0760
     17 C           5.4641    0.2500    0.0000 C.ar    1  UNL1        0.1270
     18 C           6.3301    1.7500    0.0000 C.ar    1  UNL1        0.1376
     19 C           9.8602   -0.2742    0.0000 C.ar    1  UNL1        0.0347
     20 C           5.4641    1.2500    0.0000 C.ar    1  UNL1        0.0227
     21 C           3.7320   -1.7500    0.0000 C.2     1  UNL1       -0.0847
     22 C           4.5981   -3.2500    0.0000 C.3     1  UNL1       -0.0438
     23 C           9.8564   -1.2741    0.0000 C.ar    1  UNL1        0.1270
     24 C          10.7282    0.2225    0.0000 C.ar    1  UNL1       -0.0481
     25 C           6.3301   -3.2500    0.0000 C.2     1  UNL1       -0.0994
     26 C           2.8660   -1.2500    0.0000 C.2     1  UNL1       -0.0796
     27 C          10.7205   -1.7775    0.0000 C.ar    1  UNL1        0.0217
     28 C          11.5923   -0.2808    0.0000 C.ar    1  UNL1       -0.0196
     29 C          11.5884   -1.2808    0.0000 C.ar    1  UNL1        0.1203
     30 C           2.0000   -1.7500    0.0000 C.3     1  UNL1       -0.0440
     31 C           2.8660   -0.2500    0.0000 C.3     1  UNL1       -0.0440
     32 C           5.4641    3.2500    0.0000 C.3     1  UNL1        0.0788
     33 H           5.4641   -1.1300    0.0000 H       1  UNL1        0.0352
     34 H           6.5422   -1.8326    0.0000 H       1  UNL1        0.0321
     35 H           6.9407   -1.1423    0.0000 H       1  UNL1        0.0321
     36 H           8.9913   -0.6208    0.0000 H       1  UNL1        0.0790
     37 H           9.6070    1.1647    0.0000 H       1  UNL1        0.0385
     38 H           9.2052    1.8545    0.0000 H       1  UNL1        0.0385
     39 H           4.9966   -0.7751    0.0000 H       1  UNL1        0.0313
     40 H           4.1996   -0.7751    0.0000 H       1  UNL1        0.0313
     41 H           4.9272    1.5600    0.0000 H       1  UNL1        0.0691
     42 H           3.7320   -2.3700    0.0000 H       1  UNL1        0.0572
     43 H           4.2881   -2.7131    0.0000 H       1  UNL1        0.0274
     44 H           4.0611   -3.5600    0.0000 H       1  UNL1        0.0274
     45 H           4.9081   -3.7869    0.0000 H       1  UNL1        0.0274
     46 H          10.7306    0.8425    0.0000 H       1  UNL1        0.0624
     47 H           6.3301   -3.8700    0.0000 H       1  UNL1        0.0534
     48 H           6.8671   -2.9400    0.0000 H       1  UNL1        0.0534
     49 H           4.0611    0.0600    0.0000 H       1  UNL1        0.2921
     50 H          10.7181   -2.3975    0.0000 H       1  UNL1        0.0691
     51 H          12.1304    0.0271    0.0000 H       1  UNL1        0.0654
     52 H           1.6900   -1.2131    0.0000 H       1  UNL1        0.0274
     53 H           1.4631   -2.0600    0.0000 H       1  UNL1        0.0274
     54 H           2.3100   -2.2869    0.0000 H       1  UNL1        0.0274
     55 H           3.4860   -0.2500    0.0000 H       1  UNL1        0.0274
     56 H           2.8660    0.3700    0.0000 H       1  UNL1        0.0274
     57 H           2.2460   -0.2500    0.0000 H       1  UNL1        0.0274
     58 H           5.7741    3.7869    0.0000 H       1  UNL1        0.0660
     59 H           4.9272    3.5600    0.0000 H       1  UNL1        0.0660
     60 H           5.1541    2.7131    0.0000 H       1  UNL1        0.0660
     61 H           8.9861   -2.3908    0.0000 H       1  UNL1        0.2921
     62 H          12.9907   -1.4762    0.0000 H       1  UNL1        0.2921
@<TRIPOS>BOND
     1     1    10    1
     2     1    11    1
     3     2    18    1
     4     2    32    1
     5     3    17    1
     6     3    49    1
     7     4    15    2
     8     5    23    1
     9     5    61    1
    10     6    29    1
    11     6    62    1
    12     7     8    1
    13     7    14    1
    14     7    16    1
    15     7    33    1
    16     8     9    1
    17     8    34    1
    18     8    35    1
    19     9    10   ar
    20     9    17   ar
    21    10    12   ar
    22    11    13    1
    23    11    19    1
    24    11    36    1
    25    12    15    1
    26    12    18   ar
    27    13    15    1
    28    13    37    1
    29    13    38    1
    30    14    21    1
    31    14    39    1
    32    14    40    1
    33    16    22    1
    34    16    25    2
    35    17    20   ar
    36    18    20   ar
    37    19    23   ar
    38    19    24   ar
    39    20    41    1
    40    21    26    2
    41    21    42    1
    42    22    43    1
    43    22    44    1
    44    22    45    1
    45    23    27   ar
    46    24    28   ar
    47    24    46    1
    48    25    47    1
    49    25    48    1
    50    26    30    1
    51    26    31    1
    52    27    29   ar
    53    27    50    1
    54    28    29   ar
    55    28    51    1
    56    30    52    1
    57    30    53    1
    58    30    54    1
    59    31    55    1
    60    31    56    1
    61    31    57    1
    62    32    58    1
    63    32    59    1
    64    32    60    1
