@<TRIPOS>MOLECULE
IMPHY008021
 50 50 0 0 0
SMALL
GASTEIGER

@<TRIPOS>ATOM
      1 O           5.4641    1.0000    0.0000 O.3     1  UNL1       -0.4577
      2 O           3.7320    2.0000    0.0000 O.3     1  UNL1       -0.4581
      3 O           5.4641   -2.0000    0.0000 O.3     1  UNL1       -0.4572
      4 O           8.9282   -1.0000    0.0000 O.3     1  UNL1       -0.4538
      5 O           4.5981    2.5000    0.0000 O.2     1  UNL1       -0.2512
      6 O           2.0000    2.0000    0.0000 O.2     1  UNL1       -0.2512
      7 O           3.7320   -2.0000    0.0000 O.2     1  UNL1       -0.2511
      8 O          10.6603   -1.0000    0.0000 O.2     1  UNL1       -0.2456
      9 C           4.5981    0.5000    0.0000 C.3     1  UNL1        0.1431
     10 C           4.5981   -0.5000    0.0000 C.3     1  UNL1        0.0288
     11 C           3.7320    1.0000    0.0000 C.3     1  UNL1        0.1371
     12 C           5.4641   -1.0000    0.0000 C.3     1  UNL1        0.1248
     13 C           6.3301   -0.5000    0.0000 C.2     1  UNL1       -0.0443
     14 C           2.8660    0.5000    0.0000 C.3     1  UNL1       -0.0242
     15 C           8.0622   -0.5000    0.0000 C.3     1  UNL1        0.1251
     16 C           7.1962   -1.0000    0.0000 C.2     1  UNL1       -0.0442
     17 C           8.0622    0.5000    0.0000 C.3     1  UNL1        0.0068
     18 C           5.4641    2.0000    0.0000 C.2     1  UNL1        0.3043
     19 C           8.9282    1.0000    0.0000 C.2     1  UNL1       -0.0735
     20 C           2.8660    2.5000    0.0000 C.2     1  UNL1        0.3043
     21 C           4.5981   -2.5000    0.0000 C.2     1  UNL1        0.3045
     22 C           9.7942    0.5000    0.0000 C.2     1  UNL1        0.0187
     23 C           9.7942   -0.5000    0.0000 C.2     1  UNL1        0.3322
     24 C           6.3301    2.5000    0.0000 C.3     1  UNL1        0.0332
     25 C           2.8660    3.5000    0.0000 C.3     1  UNL1        0.0332
     26 C           4.5981   -3.5000    0.0000 C.3     1  UNL1        0.0333
     27 H           4.5981    1.1200    0.0000 H       1  UNL1        0.0773
     28 H           3.9875   -0.3923    0.0000 H       1  UNL1        0.0341
     29 H           4.3860   -1.0826    0.0000 H       1  UNL1        0.0341
     30 H           3.1951    1.3100    0.0000 H       1  UNL1        0.0768
     31 H           6.0010   -1.3100    0.0000 H       1  UNL1        0.0780
     32 H           6.3301    0.1200    0.0000 H       1  UNL1        0.0606
     33 H           2.5560    1.0369    0.0000 H       1  UNL1        0.0266
     34 H           2.3291    0.1900    0.0000 H       1  UNL1        0.0266
     35 H           3.1760   -0.0369    0.0000 H       1  UNL1        0.0266
     36 H           8.0622   -1.1200    0.0000 H       1  UNL1        0.0782
     37 H           7.1962   -1.6200    0.0000 H       1  UNL1        0.0606
     38 H           7.8501    1.0826    0.0000 H       1  UNL1        0.0346
     39 H           7.4516    0.3923    0.0000 H       1  UNL1        0.0346
     40 H           8.9282    1.6200    0.0000 H       1  UNL1        0.0575
     41 H          10.3312    0.8100    0.0000 H       1  UNL1        0.0686
     42 H           6.6401    1.9631    0.0000 H       1  UNL1        0.0342
     43 H           6.8671    2.8100    0.0000 H       1  UNL1        0.0342
     44 H           6.0201    3.0369    0.0000 H       1  UNL1        0.0342
     45 H           3.4860    3.5000    0.0000 H       1  UNL1        0.0342
     46 H           2.8660    4.1200    0.0000 H       1  UNL1        0.0342
     47 H           2.2460    3.5000    0.0000 H       1  UNL1        0.0342
     48 H           3.9781   -3.5000    0.0000 H       1  UNL1        0.0342
     49 H           4.5981   -4.1200    0.0000 H       1  UNL1        0.0342
     50 H           5.2181   -3.5000    0.0000 H       1  UNL1        0.0342
@<TRIPOS>BOND
     1     9     1    1
     2     1    18    1
     3    11     2    1
     4     2    20    1
     5    12     3    1
     6     3    21    1
     7     4    15    1
     8     4    23    1
     9     5    18    2
    10     6    20    2
    11     7    21    2
    12     8    23    2
    13     9    10    1
    14     9    11    1
    15     9    27    1
    16    10    12    1
    17    10    28    1
    18    10    29    1
    19    11    14    1
    20    11    30    1
    21    12    13    1
    22    12    31    1
    23    13    16    2
    24    13    32    1
    25    14    33    1
    26    14    34    1
    27    14    35    1
    28    15    16    1
    29    15    17    1
    30    15    36    1
    31    16    37    1
    32    17    19    1
    33    17    38    1
    34    17    39    1
    35    18    24    1
    36    19    22    2
    37    19    40    1
    38    20    25    1
    39    21    26    1
    40    22    23    1
    41    22    41    1
    42    24    42    1
    43    24    43    1
    44    24    44    1
    45    25    45    1
    46    25    46    1
    47    25    47    1
    48    26    48    1
    49    26    49    1
    50    26    50    1
