@<TRIPOS>MOLECULE
IMPHY012147
 26 27 0 0 0
SMALL
GASTEIGER

@<TRIPOS>ATOM
      1 C           5.4490   -0.0329    0.0000 C.3     1  UNL1       -0.0255
      2 C           4.3089    0.9242    0.0000 C.3     1  UNL1       -0.0345
      3 C           4.0501   -0.0417    0.0000 C.3     1  UNL1       -0.0145
      4 C           3.5723    1.9068    0.0000 C.3     1  UNL1       -0.0427
      5 C           2.2756    0.6130    0.0000 C.3     1  UNL1       -0.0460
      6 C           2.8290   -0.9074    0.0000 C.2     1  UNL1       -0.0730
      7 C           2.0000   -0.3482    0.0000 C.3     1  UNL1       -0.0314
      8 C           5.9490   -0.8990    0.0000 C.3     1  UNL1       -0.0590
      9 C           6.3150    0.4671    0.0000 C.3     1  UNL1       -0.0590
     10 C           2.8639   -1.9068    0.0000 C.2     1  UNL1       -0.0992
     11 H           4.7592    1.3504    0.0000 H       1  UNL1        0.0306
     12 H           4.2401   -0.6319    0.0000 H       1  UNL1        0.0351
     13 H           3.8901    2.4392    0.0000 H       1  UNL1        0.0274
     14 H           2.9591    1.9988    0.0000 H       1  UNL1        0.0274
     15 H           2.2706    1.2330    0.0000 H       1  UNL1        0.0271
     16 H           1.6613    0.6968    0.0000 H       1  UNL1        0.0271
     17 H           1.4252   -0.1160    0.0000 H       1  UNL1        0.0310
     18 H           1.7089   -0.8956    0.0000 H       1  UNL1        0.0310
     19 H           5.4121   -1.2090    0.0000 H       1  UNL1        0.0235
     20 H           6.2590   -1.4359    0.0000 H       1  UNL1        0.0235
     21 H           6.4859   -0.5890    0.0000 H       1  UNL1        0.0235
     22 H           6.6250   -0.0699    0.0000 H       1  UNL1        0.0235
     23 H           6.8520    0.7771    0.0000 H       1  UNL1        0.0235
     24 H           6.0050    1.0040    0.0000 H       1  UNL1        0.0235
     25 H           2.3382   -2.2354    0.0000 H       1  UNL1        0.0534
     26 H           3.4114   -2.1979    0.0000 H       1  UNL1        0.0534
@<TRIPOS>BOND
     1     1     2    1
     2     1     3    1
     3     1     8    1
     4     1     9    1
     5     2     4    1
     6     2     5    1
     7     2    11    1
     8     3     4    1
     9     3     6    1
    10     3    12    1
    11     4    13    1
    12     4    14    1
    13     5     7    1
    14     5    15    1
    15     5    16    1
    16     6     7    1
    17     6    10    2
    18     7    17    1
    19     7    18    1
    20     8    19    1
    21     8    20    1
    22     8    21    1
    23     9    22    1
    24     9    23    1
    25     9    24    1
    26    10    25    1
    27    10    26    1
