@<TRIPOS>MOLECULE
IMPHY016930
 48 50 0 0 0
SMALL
GASTEIGER

@<TRIPOS>ATOM
      1 O           7.3424    0.8047    0.0000 O.2     1  UNL1       -0.4590
      2 O           5.5301   -2.0000    0.0000 O.3     1  UNL1       -0.4865
      3 O           5.5301    2.0000    0.0000 O.3     1  UNL1       -0.4810
      4 O           3.7702    1.0347    0.0000 O.2     1  UNL1       -0.4182
      5 O           2.0000    1.0241    0.0000 O.2     1  UNL1       -0.2452
      6 C           6.3961   -0.5000    0.0000 C.ar    1  UNL1        0.0662
      7 C           4.6641   -0.5000    0.0000 C.ar    1  UNL1        0.0637
      8 C           5.5301   -1.0000    0.0000 C.ar    1  UNL1        0.1426
      9 C           6.3961    0.5000    0.0000 C.ar    1  UNL1        0.1834
     10 C           5.5301    1.0000    0.0000 C.ar    1  UNL1        0.2069
     11 C           4.6641    0.5000    0.0000 C.ar    1  UNL1        0.1877
     12 C           7.3424   -0.8047    0.0000 C.ar    1  UNL1       -0.0125
     13 C           3.7702   -1.0347    0.0000 C.ar    1  UNL1       -0.0406
     14 C           7.9260   -0.0000    0.0000 C.ar    1  UNL1        0.0934
     15 C           6.3961   -2.5000    0.0000 C.3     1  UNL1        0.1081
     16 C           2.8641   -0.5208    0.0000 C.ar    1  UNL1        0.0237
     17 C           6.3961    2.5000    0.0000 C.3     1  UNL1        0.1084
     18 C           2.8641    0.5208    0.0000 C.ar    1  UNL1        0.3373
     19 C           6.3961   -3.5000    0.0000 C.2     1  UNL1       -0.0484
     20 C           6.3961    3.5000    0.0000 C.2     1  UNL1       -0.0484
     21 C           7.2622   -4.0000    0.0000 C.2     1  UNL1       -0.0765
     22 C           7.2622    4.0000    0.0000 C.2     1  UNL1       -0.0765
     23 C           7.2622   -5.0000    0.0000 C.3     1  UNL1       -0.0439
     24 C           8.1282   -3.5000    0.0000 C.3     1  UNL1       -0.0439
     25 C           7.2622    5.0000    0.0000 C.3     1  UNL1       -0.0439
     26 C           8.1282    3.5000    0.0000 C.3     1  UNL1       -0.0439
     27 H           7.5350   -1.3940    0.0000 H       1  UNL1        0.0656
     28 H           3.7773   -1.6546    0.0000 H       1  UNL1        0.0628
     29 H           8.5460   -0.0000    0.0000 H       1  UNL1        0.1030
     30 H           7.0067   -2.6077    0.0000 H       1  UNL1        0.0742
     31 H           6.6082   -1.9174    0.0000 H       1  UNL1        0.0742
     32 H           2.3284   -0.8329    0.0000 H       1  UNL1        0.0689
     33 H           6.6082    1.9174    0.0000 H       1  UNL1        0.0742
     34 H           7.0067    2.6077    0.0000 H       1  UNL1        0.0742
     35 H           5.8592   -3.8100    0.0000 H       1  UNL1        0.0605
     36 H           5.8592    3.8100    0.0000 H       1  UNL1        0.0605
     37 H           6.6422   -5.0000    0.0000 H       1  UNL1        0.0274
     38 H           7.2622   -5.6200    0.0000 H       1  UNL1        0.0274
     39 H           7.8822   -5.0000    0.0000 H       1  UNL1        0.0274
     40 H           8.4382   -4.0369    0.0000 H       1  UNL1        0.0274
     41 H           8.6651   -3.1900    0.0000 H       1  UNL1        0.0274
     42 H           7.8182   -2.9631    0.0000 H       1  UNL1        0.0274
     43 H           7.8822    5.0000    0.0000 H       1  UNL1        0.0274
     44 H           7.2622    5.6200    0.0000 H       1  UNL1        0.0274
     45 H           6.6422    5.0000    0.0000 H       1  UNL1        0.0274
     46 H           7.8182    2.9631    0.0000 H       1  UNL1        0.0274
     47 H           8.6651    3.1900    0.0000 H       1  UNL1        0.0274
     48 H           8.4382    4.0369    0.0000 H       1  UNL1        0.0274
@<TRIPOS>BOND
     1     1     9   ar
     2     1    14   ar
     3     2     8    1
     4     2    15    1
     5     3    10    1
     6     3    17    1
     7     4    11   ar
     8     4    18   ar
     9     5    18    2
    10     6     8   ar
    11     6     9   ar
    12     6    12   ar
    13     7     8   ar
    14     7    11   ar
    15     7    13   ar
    16     9    10   ar
    17    10    11   ar
    18    12    14   ar
    19    12    27    1
    20    13    16   ar
    21    13    28    1
    22    14    29    1
    23    15    19    1
    24    15    30    1
    25    15    31    1
    26    16    18   ar
    27    16    32    1
    28    17    20    1
    29    17    33    1
    30    17    34    1
    31    19    21    2
    32    19    35    1
    33    20    22    2
    34    20    36    1
    35    21    23    1
    36    21    24    1
    37    22    25    1
    38    22    26    1
    39    23    37    1
    40    23    38    1
    41    23    39    1
    42    24    40    1
    43    24    41    1
    44    24    42    1
    45    25    43    1
    46    25    44    1
    47    25    45    1
    48    26    46    1
    49    26    47    1
    50    26    48    1
