@<TRIPOS>MOLECULE
IMPHY005255
 136 143 0 0 0
SMALL
GASTEIGER

@<TRIPOS>ATOM
      1 O           8.5991   -1.6941    0.0000 O.3     1  UNL1       -0.3449
      2 O          10.3529    7.5853    0.0000 O.3     1  UNL1       -0.4802
      3 O          11.2362    6.0954    0.0000 O.2     1  UNL1       -0.2504
      4 O           6.8671   -1.6941    0.0000 O.3     1  UNL1       -0.3461
      5 O           8.5991   -3.6941    0.0000 O.3     1  UNL1       -0.3378
      6 O           6.8671   -4.6941    0.0000 O.3     1  UNL1       -0.3401
      7 O           5.1350   -3.6941    0.0000 O.3     1  UNL1       -0.3868
      8 O           9.4651   -2.1941    0.0000 O.3     1  UNL1       -0.3461
      9 O           5.1350   -4.6941    0.0000 O.3     1  UNL1       -0.3405
     10 O          10.3312   -4.6941    0.0000 O.3     1  UNL1       -0.3841
     11 O           6.8671   -6.6941    0.0000 O.3     1  UNL1       -0.3841
     12 O          12.0632   -3.6941    0.0000 O.3     1  UNL1       -0.3864
     13 O          12.0632   -1.6941    0.0000 O.3     1  UNL1       -0.3869
     14 O           5.1350   -7.6941    0.0000 O.3     1  UNL1       -0.3864
     15 O           3.4030   -6.6941    0.0000 O.3     1  UNL1       -0.3865
     16 O           2.5369   -5.1941    0.0000 O.3     1  UNL1       -0.3924
     17 C           9.5002    3.0061    0.0000 C.3     1  UNL1       -0.0194
     18 C           8.6361    2.5027    0.0000 C.3     1  UNL1       -0.0257
     19 C           8.6240    1.4612    0.0000 C.3     1  UNL1       -0.0250
     20 C           9.4963    4.0061    0.0000 C.3     1  UNL1       -0.0051
     21 C           9.5241    0.9369    0.0000 C.3     1  UNL1       -0.0278
     22 C          10.4121    2.5027    0.0000 C.3     1  UNL1       -0.0463
     23 C           9.5366   -0.1480    0.0000 C.3     1  UNL1       -0.0052
     24 C          10.4242    1.4612    0.0000 C.3     1  UNL1       -0.0486
     25 C           8.6284    4.5027    0.0000 C.2     1  UNL1       -0.0629
     26 C           7.7681    2.9994    0.0000 C.3     1  UNL1       -0.0306
     27 C           7.6741    0.9369    0.0000 C.3     1  UNL1       -0.0447
     28 C           8.6083    5.5442    0.0000 C.3     1  UNL1       -0.0031
     29 C          10.4044    4.5164    0.0000 C.3     1  UNL1       -0.0424
     30 C           9.5043    6.0754    0.0000 C.3     1  UNL1        0.0741
     31 C          10.4843    3.1835    0.0000 C.3     1  UNL1       -0.0585
     32 C           8.5991   -0.6941    0.0000 C.3     1  UNL1        0.0672
     33 C          10.4084    5.5580    0.0000 C.3     1  UNL1       -0.0359
     34 C           7.7600    1.9645    0.0000 C.3     1  UNL1       -0.0590
     35 C           7.6616   -0.1480    0.0000 C.3     1  UNL1       -0.0255
     36 C           7.7643    3.9994    0.0000 C.2     1  UNL1       -0.0836
     37 C          10.4818    3.8362    0.0000 C.3     1  UNL1       -0.0553
     38 C           7.6544    6.0611    0.0000 C.3     1  UNL1       -0.0403
     39 C           9.5085    7.1604    0.0000 C.3     1  UNL1       -0.0362
     40 C           7.6335    7.1459    0.0000 C.3     1  UNL1       -0.0343
     41 C          10.5366   -0.1403    0.0000 C.3     1  UNL1       -0.0572
     42 C          10.0433   -1.0102    0.0000 C.3     1  UNL1       -0.0572
     43 C           8.5668    7.6992    0.0000 C.3     1  UNL1       -0.0468
     44 C          10.3645    6.5854    0.0000 C.2     1  UNL1        0.3115
     45 C           7.1202    8.0041    0.0000 C.3     1  UNL1       -0.0598
     46 C           6.6336    7.1305    0.0000 C.3     1  UNL1       -0.0598
     47 C           7.7331   -2.1941    0.0000 C.3     1  UNL1        0.1882
     48 C           7.7331   -3.1941    0.0000 C.3     1  UNL1        0.1410
     49 C           6.8671   -3.6941    0.0000 C.3     1  UNL1        0.1206
     50 C           6.0010   -2.1941    0.0000 C.3     1  UNL1        0.0792
     51 C           6.0010   -3.1941    0.0000 C.3     1  UNL1        0.1073
     52 C           9.4651   -3.1941    0.0000 C.3     1  UNL1        0.1881
     53 C           6.0010   -5.1941    0.0000 C.3     1  UNL1        0.1884
     54 C          10.3312   -3.6941    0.0000 C.3     1  UNL1        0.1341
     55 C           6.0010   -6.1941    0.0000 C.3     1  UNL1        0.1341
     56 C          11.1972   -3.1941    0.0000 C.3     1  UNL1        0.1137
     57 C          10.3312   -1.6941    0.0000 C.3     1  UNL1        0.0792
     58 C          11.1972   -2.1941    0.0000 C.3     1  UNL1        0.1069
     59 C           5.1350   -6.6941    0.0000 C.3     1  UNL1        0.1141
     60 C           4.2690   -5.1941    0.0000 C.3     1  UNL1        0.1130
     61 C           4.2690   -6.1941    0.0000 C.3     1  UNL1        0.1119
     62 C           3.4030   -4.6941    0.0000 C.3     1  UNL1        0.0730
     63 H           9.3706    2.0749    0.0000 H       1  UNL1        0.0315
     64 H          10.0634    0.6311    0.0000 H       1  UNL1        0.0312
     65 H          11.0242    2.4037    0.0000 H       1  UNL1        0.0271
     66 H          10.6144    3.0888    0.0000 H       1  UNL1        0.0271
     67 H          10.6400    0.8800    0.0000 H       1  UNL1        0.0268
     68 H          11.0338    1.5743    0.0000 H       1  UNL1        0.0268
     69 H           7.1572    3.1047    0.0000 H       1  UNL1        0.0310
     70 H           7.5583    2.4160    0.0000 H       1  UNL1        0.0310
     71 H           7.4718    1.5230    0.0000 H       1  UNL1        0.0271
     72 H           7.0621    0.8379    0.0000 H       1  UNL1        0.0271
     73 H           7.8822    5.1023    0.0000 H       1  UNL1        0.0357
     74 H          10.6112    3.9319    0.0000 H       1  UNL1        0.0274
     75 H          11.0156    4.6202    0.0000 H       1  UNL1        0.0274
     76 H          10.5943    2.5734    0.0000 H       1  UNL1        0.0235
     77 H          11.0945    3.2936    0.0000 H       1  UNL1        0.0235
     78 H          10.3743    3.7937    0.0000 H       1  UNL1        0.0235
     79 H           8.0616   -1.0031    0.0000 H       1  UNL1        0.0602
     80 H          11.0188    5.4496    0.0000 H       1  UNL1        0.0276
     81 H          10.6197    6.1409    0.0000 H       1  UNL1        0.0276
     82 H           8.0720    2.5003    0.0000 H       1  UNL1        0.0235
     83 H           7.2242    2.2766    0.0000 H       1  UNL1        0.0235
     84 H           7.4479    1.4288    0.0000 H       1  UNL1        0.0235
     85 H           7.0520   -0.0349    0.0000 H       1  UNL1        0.0290
     86 H           7.4458   -0.7293    0.0000 H       1  UNL1        0.0290
     87 H           7.2262    4.3073    0.0000 H       1  UNL1        0.0572
     88 H          10.3765    3.2252    0.0000 H       1  UNL1        0.0238
     89 H          11.0928    3.7309    0.0000 H       1  UNL1        0.0238
     90 H          10.5871    4.4472    0.0000 H       1  UNL1        0.0238
     91 H           7.0416    6.1554    0.0000 H       1  UNL1        0.0276
     92 H           7.4566    5.4735    0.0000 H       1  UNL1        0.0276
     93 H          10.1189    7.0519    0.0000 H       1  UNL1        0.0276
     94 H           9.7198    7.7433    0.0000 H       1  UNL1        0.0276
     95 H          10.5414   -0.7603    0.0000 H       1  UNL1        0.0236
     96 H          11.1566   -0.1355    0.0000 H       1  UNL1        0.0236
     97 H           9.5088   -1.3243    0.0000 H       1  UNL1        0.0236
     98 H          10.3574   -1.5447    0.0000 H       1  UNL1        0.0236
     99 H          10.5778   -0.6960    0.0000 H       1  UNL1        0.0236
    100 H          10.5318    0.4797    0.0000 H       1  UNL1        0.0236
    101 H           8.9622    8.1767    0.0000 H       1  UNL1        0.0271
    102 H           8.1640    8.1706    0.0000 H       1  UNL1        0.0271
    103 H           6.6240    7.7504    0.0000 H       1  UNL1        0.0235
    104 H           6.0137    7.1209    0.0000 H       1  UNL1        0.0235
    105 H           7.6523    8.3224    0.0000 H       1  UNL1        0.0235
    106 H           6.6431    6.5106    0.0000 H       1  UNL1        0.0235
    107 H           6.8019    8.5362    0.0000 H       1  UNL1        0.0235
    108 H           6.5881    7.6859    0.0000 H       1  UNL1        0.0235
    109 H           8.2700   -2.5041    0.0000 H       1  UNL1        0.0937
    110 H          10.8862    7.9015    0.0000 H       1  UNL1        0.2951
    111 H           7.7331   -3.8141    0.0000 H       1  UNL1        0.0675
    112 H           6.3301   -4.0041    0.0000 H       1  UNL1        0.0651
    113 H           5.7890   -1.6115    0.0000 H       1  UNL1        0.0587
    114 H           5.3905   -2.3018    0.0000 H       1  UNL1        0.0587
    115 H           5.4641   -2.8841    0.0000 H       1  UNL1        0.0643
    116 H           9.4651   -3.8141    0.0000 H       1  UNL1        0.0937
    117 H           4.5981   -3.3841    0.0000 H       1  UNL1        0.2100
    118 H           6.0010   -4.5741    0.0000 H       1  UNL1        0.0938
    119 H          10.8681   -4.0041    0.0000 H       1  UNL1        0.0671
    120 H           6.0010   -6.8141    0.0000 H       1  UNL1        0.0671
    121 H          11.7341   -2.8841    0.0000 H       1  UNL1        0.0647
    122 H          10.7297   -1.2192    0.0000 H       1  UNL1        0.0587
    123 H           9.9326   -1.2192    0.0000 H       1  UNL1        0.0587
    124 H          11.1972   -1.5741    0.0000 H       1  UNL1        0.0643
    125 H           4.5981   -7.0041    0.0000 H       1  UNL1        0.0648
    126 H           4.2690   -4.5741    0.0000 H       1  UNL1        0.0647
    127 H           3.7320   -5.8841    0.0000 H       1  UNL1        0.0647
    128 H           9.7942   -5.0041    0.0000 H       1  UNL1        0.2101
    129 H           7.4040   -6.3841    0.0000 H       1  UNL1        0.2101
    130 H          12.6002   -3.3841    0.0000 H       1  UNL1        0.2100
    131 H           3.8015   -4.2192    0.0000 H       1  UNL1        0.0584
    132 H           3.0044   -4.2192    0.0000 H       1  UNL1        0.0584
    133 H          12.0632   -1.0741    0.0000 H       1  UNL1        0.2100
    134 H           5.6720   -8.0041    0.0000 H       1  UNL1        0.2100
    135 H           3.4030   -7.3141    0.0000 H       1  UNL1        0.2100
    136 H           2.0000   -4.8841    0.0000 H       1  UNL1        0.2095
@<TRIPOS>BOND
     1    32     1    1
     2    47     1    1
     3     2    44    1
     4     2   110    1
     5     3    44    2
     6     4    47    1
     7     4    50    1
     8    48     5    1
     9    52     5    1
    10    49     6    1
    11    53     6    1
    12    51     7    1
    13     7   117    1
    14     8    52    1
    15     8    57    1
    16     9    53    1
    17     9    60    1
    18    54    10    1
    19    10   128    1
    20    55    11    1
    21    11   129    1
    22    56    12    1
    23    12   130    1
    24    58    13    1
    25    13   133    1
    26    59    14    1
    27    14   134    1
    28    61    15    1
    29    15   135    1
    30    16    62    1
    31    16   136    1
    32    17    18    1
    33    17    20    1
    34    17    22    1
    35    17    31    1
    36    18    19    1
    37    18    26    1
    38    18    63    1
    39    19    21    1
    40    19    27    1
    41    19    34    1
    42    20    25    1
    43    20    29    1
    44    20    37    1
    45    21    23    1
    46    21    24    1
    47    21    64    1
    48    22    24    1
    49    22    65    1
    50    22    66    1
    51    23    32    1
    52    23    41    1
    53    23    42    1
    54    24    67    1
    55    24    68    1
    56    25    28    1
    57    25    36    2
    58    26    36    1
    59    26    69    1
    60    26    70    1
    61    27    35    1
    62    27    71    1
    63    27    72    1
    64    28    30    1
    65    28    38    1
    66    28    73    1
    67    29    33    1
    68    29    74    1
    69    29    75    1
    70    30    33    1
    71    30    39    1
    72    30    44    1
    73    31    76    1
    74    31    77    1
    75    31    78    1
    76    32    35    1
    77    32    79    1
    78    33    80    1
    79    33    81    1
    80    34    82    1
    81    34    83    1
    82    34    84    1
    83    35    85    1
    84    35    86    1
    85    36    87    1
    86    37    88    1
    87    37    89    1
    88    37    90    1
    89    38    40    1
    90    38    91    1
    91    38    92    1
    92    39    43    1
    93    39    93    1
    94    39    94    1
    95    40    43    1
    96    40    45    1
    97    40    46    1
    98    41    95    1
    99    41    96    1
   100    41   100    1
   101    42    97    1
   102    42    98    1
   103    42    99    1
   104    43   101    1
   105    43   102    1
   106    45   105    1
   107    45   107    1
   108    45   108    1
   109    46   103    1
   110    46   104    1
   111    46   106    1
   112    47    48    1
   113    47   109    1
   114    48    49    1
   115    48   111    1
   116    49    51    1
   117    49   112    1
   118    50    51    1
   119    50   113    1
   120    50   114    1
   121    51   115    1
   122    52    54    1
   123    52   116    1
   124    53    55    1
   125    53   118    1
   126    54    56    1
   127    54   119    1
   128    55    59    1
   129    55   120    1
   130    56    58    1
   131    56   121    1
   132    57    58    1
   133    57   122    1
   134    57   123    1
   135    58   124    1
   136    59    61    1
   137    59   125    1
   138    60    61    1
   139    60    62    1
   140    60   126    1
   141    61   127    1
   142    62   131    1
   143    62   132    1
