@<TRIPOS>MOLECULE
IMPHY009431
 86 90 0 0 0
SMALL
GASTEIGER

@<TRIPOS>ATOM
      1 O           7.9506   -1.8713    0.0000 O.3     1  UNL1       -0.3886
      2 O           6.1847   -2.9091    0.0000 O.3     1  UNL1       -0.3889
      3 O          10.5929   -0.3640    0.0000 O.3     1  UNL1       -0.3911
      4 O           2.5357   -1.8922    0.0000 O.3     1  UNL1       -0.3912
      5 O           4.3500   -3.6701    0.0000 O.3     1  UNL1       -0.3944
      6 O          11.4608    1.1943    0.0000 O.3     1  UNL1       -0.3944
      7 C           7.0628   -0.3398    0.0000 C.3     1  UNL1        0.0091
      8 C           6.1968    0.1601    0.0000 C.3     1  UNL1       -0.0232
      9 C           5.2868   -0.3467    0.0000 C.3     1  UNL1       -0.0224
     10 C           7.9288    0.1601    0.0000 C.3     1  UNL1       -0.0004
     11 C           5.2787   -1.3883    0.0000 C.3     1  UNL1        0.0030
     12 C           7.0789   -1.3814    0.0000 C.3     1  UNL1        0.0877
     13 C           6.1808   -1.9091    0.0000 C.3     1  UNL1        0.0856
     14 C           7.9288    1.1602    0.0000 C.2     1  UNL1       -0.0631
     15 C           4.3433   -1.9380    0.0000 C.3     1  UNL1        0.0227
     16 C           8.8228    1.6948    0.0000 C.3     1  UNL1       -0.0088
     17 C           9.7288    1.1810    0.0000 C.3     1  UNL1        0.0263
     18 C           8.8228   -0.3745    0.0000 C.3     1  UNL1       -0.0165
     19 C           6.1968    1.1602    0.0000 C.3     1  UNL1       -0.0305
     20 C           4.3599    0.2174    0.0000 C.3     1  UNL1       -0.0446
     21 C           9.7288    0.1393    0.0000 C.3     1  UNL1        0.0643
     22 C           7.7056   -1.1059    0.0000 C.3     1  UNL1       -0.0560
     23 C           7.0628    1.6602    0.0000 C.2     1  UNL1       -0.0836
     24 C           3.4037   -1.3955    0.0000 C.3     1  UNL1        0.0631
     25 C           5.2945    0.6533    0.0000 C.3     1  UNL1       -0.0589
     26 C           8.2709   -0.7795    0.0000 C.3     1  UNL1       -0.0552
     27 C           3.4120   -0.3106    0.0000 C.3     1  UNL1       -0.0257
     28 C           8.7977    2.7795    0.0000 C.3     1  UNL1       -0.0406
     29 C          10.6726    1.7162    0.0000 C.3     1  UNL1       -0.0419
     30 C           9.7288    3.3364    0.0000 C.3     1  UNL1       -0.0343
     31 C          10.6726    2.8012    0.0000 C.3     1  UNL1       -0.0472
     32 C           3.8467   -2.8060    0.0000 C.3     1  UNL1        0.0523
     33 C           4.8466   -2.8021    0.0000 C.3     1  UNL1       -0.0547
     34 C          10.5987    0.6877    0.0000 C.3     1  UNL1        0.0527
     35 C          10.2188    4.2082    0.0000 C.3     1  UNL1       -0.0598
     36 C           9.2188    4.1966    0.0000 C.3     1  UNL1       -0.0598
     37 H           6.9329    0.5851    0.0000 H       1  UNL1        0.0315
     38 H           5.2820   -2.2383    0.0000 H       1  UNL1        0.0339
     39 H           7.0848   -2.0013    0.0000 H       1  UNL1        0.0625
     40 H           6.7195   -2.2160    0.0000 H       1  UNL1        0.0622
     41 H           9.5522    2.1311    0.0000 H       1  UNL1        0.0353
     42 H           8.4182   -0.8443    0.0000 H       1  UNL1        0.0299
     43 H           9.2164   -0.8535    0.0000 H       1  UNL1        0.0299
     44 H           5.9847    1.7428    0.0000 H       1  UNL1        0.0310
     45 H           5.5862    1.0525    0.0000 H       1  UNL1        0.0310
     46 H           4.7681    0.6840    0.0000 H       1  UNL1        0.0272
     47 H           3.9700    0.6994    0.0000 H       1  UNL1        0.0272
     48 H           9.7253   -0.4807    0.0000 H       1  UNL1        0.0600
     49 H           7.2306   -1.5044    0.0000 H       1  UNL1        0.0236
     50 H           8.1041   -1.5808    0.0000 H       1  UNL1        0.0236
     51 H           8.1805   -0.7074    0.0000 H       1  UNL1        0.0236
     52 H           7.0628    2.2802    0.0000 H       1  UNL1        0.0572
     53 H           3.4025   -2.0155    0.0000 H       1  UNL1        0.0599
     54 H           5.9145    0.6485    0.0000 H       1  UNL1        0.0235
     55 H           5.2993    1.2733    0.0000 H       1  UNL1        0.0235
     56 H           4.6745    0.6581    0.0000 H       1  UNL1        0.0235
     57 H           7.6884   -0.9916    0.0000 H       1  UNL1        0.0238
     58 H           8.4830   -1.3621    0.0000 H       1  UNL1        0.0238
     59 H           8.8535   -0.5674    0.0000 H       1  UNL1        0.0238
     60 H           3.2075    0.2747    0.0000 H       1  UNL1        0.0290
     61 H           2.8004   -0.4119    0.0000 H       1  UNL1        0.0290
     62 H           8.5752    3.3582    0.0000 H       1  UNL1        0.0276
     63 H           8.1894    2.6593    0.0000 H       1  UNL1        0.0276
     64 H          10.8817    1.1325    0.0000 H       1  UNL1        0.0272
     65 H          11.2835    1.8223    0.0000 H       1  UNL1        0.0272
     66 H          11.2835    2.6951    0.0000 H       1  UNL1        0.0271
     67 H          10.8817    3.3849    0.0000 H       1  UNL1        0.0271
     68 H           3.3702   -2.4093    0.0000 H       1  UNL1        0.0563
     69 H           3.3732   -3.2063    0.0000 H       1  UNL1        0.0563
     70 H           4.3109   -3.1142    0.0000 H       1  UNL1        0.0237
     71 H           5.1587   -3.3378    0.0000 H       1  UNL1        0.0237
     72 H           5.3824   -2.4900    0.0000 H       1  UNL1        0.0237
     73 H          10.2038    0.2097    0.0000 H       1  UNL1        0.0564
     74 H          11.0009    0.2158    0.0000 H       1  UNL1        0.0564
     75 H           7.9578   -2.4913    0.0000 H       1  UNL1        0.2099
     76 H           6.7228   -3.2170    0.0000 H       1  UNL1        0.2099
     77 H          10.5905   -0.9840    0.0000 H       1  UNL1        0.2098
     78 H          10.7593    3.9044    0.0000 H       1  UNL1        0.0235
     79 H          10.5226    4.7487    0.0000 H       1  UNL1        0.0235
     80 H           9.6783    4.5120    0.0000 H       1  UNL1        0.0235
     81 H           9.7522    4.5128    0.0000 H       1  UNL1        0.0235
     82 H           8.9027    4.7299    0.0000 H       1  UNL1        0.0235
     83 H           8.6855    3.8804    0.0000 H       1  UNL1        0.0235
     84 H           2.0000   -1.5801    0.0000 H       1  UNL1        0.2098
     85 H           4.0421   -4.2082    0.0000 H       1  UNL1        0.2094
     86 H          12.0001    0.8885    0.0000 H       1  UNL1        0.2094
@<TRIPOS>BOND
     1    12     1    1
     2     1    75    1
     3    13     2    1
     4     2    76    1
     5    21     3    1
     6     3    77    1
     7    24     4    1
     8     4    84    1
     9     5    32    1
    10     5    85    1
    11     6    34    1
    12     6    86    1
    13     7     8    1
    14     7    10    1
    15     7    12    1
    16     7    22    1
    17     8     9    1
    18     8    19    1
    19     8    37    1
    20     9    11    1
    21     9    20    1
    22     9    25    1
    23    10    14    1
    24    10    18    1
    25    10    26    1
    26    11    13    1
    27    11    15    1
    28    11    38    1
    29    12    13    1
    30    12    39    1
    31    13    40    1
    32    14    16    1
    33    14    23    2
    34    15    24    1
    35    15    32    1
    36    15    33    1
    37    16    17    1
    38    16    28    1
    39    16    41    1
    40    17    21    1
    41    17    29    1
    42    17    34    1
    43    18    21    1
    44    18    42    1
    45    18    43    1
    46    19    23    1
    47    19    44    1
    48    19    45    1
    49    20    27    1
    50    20    46    1
    51    20    47    1
    52    21    48    1
    53    22    49    1
    54    22    50    1
    55    22    51    1
    56    23    52    1
    57    24    27    1
    58    24    53    1
    59    25    54    1
    60    25    55    1
    61    25    56    1
    62    26    57    1
    63    26    58    1
    64    26    59    1
    65    27    60    1
    66    27    61    1
    67    28    30    1
    68    28    62    1
    69    28    63    1
    70    29    31    1
    71    29    64    1
    72    29    65    1
    73    30    31    1
    74    30    35    1
    75    30    36    1
    76    31    66    1
    77    31    67    1
    78    32    68    1
    79    32    69    1
    80    33    70    1
    81    33    71    1
    82    33    72    1
    83    34    73    1
    84    34    74    1
    85    35    78    1
    86    35    79    1
    87    35    80    1
    88    36    81    1
    89    36    82    1
    90    36    83    1
