@<TRIPOS>MOLECULE
IMPHY007574
 47 48 0 0 0
SMALL
GASTEIGER

@<TRIPOS>ATOM
      1 O          10.6603    3.0950    0.0000 O.3     1  UNL1       -0.4914
      2 O           2.8660   -4.4050    0.0000 O.3     1  UNL1       -0.4914
      3 O          10.6603    5.0950    0.0000 O.3     1  UNL1       -0.5033
      4 O           4.5981   -5.4050    0.0000 O.3     1  UNL1       -0.5033
      5 O           5.4641    2.0950    0.0000 O.2     1  UNL1       -0.2922
      6 O           4.5981    0.5950    0.0000 O.2     1  UNL1       -0.2922
      7 C           4.5981   -2.4050    0.0000 C.ar    1  UNL1       -0.0212
      8 C           8.0622    3.5950    0.0000 C.ar    1  UNL1       -0.0212
      9 C           6.3301    0.5950    0.0000 C.3     1  UNL1        0.0724
     10 C           3.7320   -2.9050    0.0000 C.ar    1  UNL1       -0.0092
     11 C           8.9282    3.0950    0.0000 C.ar    1  UNL1       -0.0092
     12 C           3.7320   -3.9050    0.0000 C.ar    1  UNL1        0.1618
     13 C           9.7942    3.5950    0.0000 C.ar    1  UNL1        0.1618
     14 C           8.0622    4.5950    0.0000 C.ar    1  UNL1       -0.0509
     15 C           5.4641   -2.9050    0.0000 C.ar    1  UNL1       -0.0509
     16 C           4.5981   -1.4050    0.0000 C.2     1  UNL1       -0.0512
     17 C           7.1962    3.0950    0.0000 C.2     1  UNL1       -0.0512
     18 C           4.5981   -4.4050    0.0000 C.ar    1  UNL1        0.1585
     19 C           9.7942    4.5950    0.0000 C.ar    1  UNL1        0.1585
     20 C           5.4641    0.0950    0.0000 C.2     1  UNL1        0.1635
     21 C           6.3301    1.5950    0.0000 C.2     1  UNL1        0.1635
     22 C           8.9282    5.0950    0.0000 C.ar    1  UNL1       -0.0160
     23 C           5.4641   -3.9050    0.0000 C.ar    1  UNL1       -0.0160
     24 C           5.4641   -0.9050    0.0000 C.2     1  UNL1       -0.0182
     25 C           7.1962    2.0950    0.0000 C.2     1  UNL1       -0.0182
     26 C           2.0000   -3.9050    0.0000 C.3     1  UNL1        0.0790
     27 C          11.5263    3.5950    0.0000 C.3     1  UNL1        0.0790
     28 H           6.5422    0.0124    0.0000 H       1  UNL1        0.0426
     29 H           6.9407    0.7027    0.0000 H       1  UNL1        0.0426
     30 H           3.1951   -2.5950    0.0000 H       1  UNL1        0.0661
     31 H           8.9282    2.4750    0.0000 H       1  UNL1        0.0661
     32 H           6.0010   -2.5950    0.0000 H       1  UNL1        0.0625
     33 H           7.5252    4.9050    0.0000 H       1  UNL1        0.0625
     34 H           4.0611   -1.0950    0.0000 H       1  UNL1        0.0625
     35 H           6.6592    3.4050    0.0000 H       1  UNL1        0.0625
     36 H           6.0010   -4.2150    0.0000 H       1  UNL1        0.0655
     37 H           8.9282    5.7150    0.0000 H       1  UNL1        0.0655
     38 H           6.0010   -1.2150    0.0000 H       1  UNL1        0.0653
     39 H           7.7331    1.7850    0.0000 H       1  UNL1        0.0653
     40 H          10.6603    5.7150    0.0000 H       1  UNL1        0.2923
     41 H           5.1350   -5.7150    0.0000 H       1  UNL1        0.2923
     42 H           2.3100   -3.3681    0.0000 H       1  UNL1        0.0660
     43 H           1.4631   -3.5950    0.0000 H       1  UNL1        0.0660
     44 H          11.8363    3.0581    0.0000 H       1  UNL1        0.0660
     45 H          12.0632    3.9050    0.0000 H       1  UNL1        0.0660
     46 H          11.2163    4.1319    0.0000 H       1  UNL1        0.0660
     47 H           1.6900   -4.4419    0.0000 H       1  UNL1        0.0660
@<TRIPOS>BOND
     1     1    13    1
     2     1    27    1
     3     2    12    1
     4     2    26    1
     5     3    19    1
     6     3    40    1
     7     4    18    1
     8     4    41    1
     9     5    21    2
    10     6    20    2
    11     7    10   ar
    12     7    15   ar
    13     7    16    1
    14     8    11   ar
    15     8    14   ar
    16     8    17    1
    17     9    20    1
    18     9    21    1
    19     9    28    1
    20     9    29    1
    21    10    12   ar
    22    10    30    1
    23    11    13   ar
    24    11    31    1
    25    12    18   ar
    26    13    19   ar
    27    14    22   ar
    28    14    33    1
    29    15    23   ar
    30    15    32    1
    31    16    24    2
    32    16    34    1
    33    17    25    2
    34    17    35    1
    35    18    23   ar
    36    19    22   ar
    37    20    24    1
    38    21    25    1
    39    22    37    1
    40    23    36    1
    41    24    38    1
    42    25    39    1
    43    26    42    1
    44    26    43    1
    45    26    47    1
    46    27    44    1
    47    27    45    1
    48    27    46    1
