@<TRIPOS>MOLECULE
IMPHY003267
 23 23 0 0 0
SMALL
GASTEIGER

@<TRIPOS>ATOM
      1 O           4.2690    2.3635    0.0000 O.3     1  UNL1       -0.5033
      2 O           2.5369    1.3635    0.0000 O.3     1  UNL1       -0.5033
      3 N           6.8671   -2.1365    0.0000 N.4     1  UNL1        0.2188
      4 C           6.0010   -0.6365    0.0000 C.3     1  UNL1        0.0127
      5 C           5.1350   -0.1365    0.0000 C.ar    1  UNL1       -0.0387
      6 C           6.0010   -1.6365    0.0000 C.3     1  UNL1       -0.0313
      7 C           5.1350    0.8635    0.0000 C.ar    1  UNL1       -0.0132
      8 C           4.2690   -0.6365    0.0000 C.ar    1  UNL1       -0.0547
      9 C           4.2690    1.3635    0.0000 C.ar    1  UNL1        0.1585
     10 C           3.4030   -0.1365    0.0000 C.ar    1  UNL1       -0.0163
     11 C           3.4030    0.8635    0.0000 C.ar    1  UNL1        0.1582
     12 H           6.6116   -0.7442    0.0000 H       1  UNL1        0.0365
     13 H           6.2131   -0.0539    0.0000 H       1  UNL1        0.0365
     14 H           5.3905   -1.5289    0.0000 H       1  UNL1        0.0816
     15 H           5.7890   -2.2191    0.0000 H       1  UNL1        0.0816
     16 H           5.6720    1.1735    0.0000 H       1  UNL1        0.0658
     17 H           4.2690   -1.2565    0.0000 H       1  UNL1        0.0621
     18 H           7.4040   -2.4465    0.0000 H       1  UNL1        0.1994
     19 H           6.5571   -2.6735    0.0000 H       1  UNL1        0.1994
     20 H           7.1771   -1.5996    0.0000 H       1  UNL1        0.1994
     21 H           2.8660   -0.4465    0.0000 H       1  UNL1        0.0655
     22 H           4.8059    2.6735    0.0000 H       1  UNL1        0.2923
     23 H           2.0000    1.0535    0.0000 H       1  UNL1        0.2923
@<TRIPOS>UNITY_ATOM_ATTR
3 1
charge 1
@<TRIPOS>BOND
     1     1     9    1
     2     1    22    1
     3     2    11    1
     4     2    23    1
     5     3     6    1
     6     3    18    1
     7     3    19    1
     8     3    20    1
     9     4     5    1
    10     4     6    1
    11     4    12    1
    12     4    13    1
    13     5     7   ar
    14     5     8   ar
    15     6    14    1
    16     6    15    1
    17     7     9   ar
    18     7    16    1
    19     8    10   ar
    20     8    17    1
    21     9    11   ar
    22    10    11   ar
    23    10    21    1
