@<TRIPOS>MOLECULE
IMPHY012327
 39 43 0 0 0
SMALL
GASTEIGER

@<TRIPOS>ATOM
      1 O           7.1246    0.7976    0.0000 O.3     1  UNL1       -0.4523
      2 O           7.1246    2.4071    0.0000 O.3     1  UNL1       -0.4526
      3 O           7.1067   -2.6024    0.0000 O.2     1  UNL1       -0.2879
      4 N           2.8261    0.8781    0.0000 N.3     1  UNL1       -0.2981
      5 C           3.7094    0.4353    0.0000 C.3     1  UNL1        0.0374
      6 C           5.1032   -0.3695    0.0000 C.3     1  UNL1        0.0382
      7 C           4.1145   -0.4725    0.0000 C.3     1  UNL1       -0.0164
      8 C           4.4464    1.1024    0.0000 C.ar    1  UNL1       -0.0190
      9 C           5.3124    0.6024    0.0000 C.ar    1  UNL1        0.0167
     10 C           4.4464    2.1024    0.0000 C.ar    1  UNL1       -0.0375
     11 C           2.7361    1.8620    0.0000 C.3     1  UNL1        0.0032
     12 C           3.5244    2.4576    0.0000 C.3     1  UNL1       -0.0144
     13 C           6.1784    1.1024    0.0000 C.ar    1  UNL1        0.1708
     14 C           6.0817   -0.1632    0.0000 C.2     1  UNL1       -0.0661
     15 C           4.7925   -1.3200    0.0000 C.2     1  UNL1       -0.0661
     16 C           5.3124    2.6024    0.0000 C.ar    1  UNL1       -0.0126
     17 C           6.1784    2.1024    0.0000 C.ar    1  UNL1        0.1668
     18 C           2.0000    0.3145    0.0000 C.3     1  UNL1       -0.0122
     19 C           6.7496   -0.9075    0.0000 C.2     1  UNL1       -0.0177
     20 C           5.4604   -2.0643    0.0000 C.2     1  UNL1       -0.0177
     21 C           6.4389   -1.8581    0.0000 C.2     1  UNL1        0.1785
     22 C           7.7083    1.6024    0.0000 C.3     1  UNL1        0.2332
     23 H           3.0950   -0.1521    0.0000 H       1  UNL1        0.0513
     24 H           3.5249   -0.6643    0.0000 H       1  UNL1        0.0298
     25 H           4.2432   -1.0790    0.0000 H       1  UNL1        0.0298
     26 H           2.4599    2.4171    0.0000 H       1  UNL1        0.0430
     27 H           2.1397    1.6928    0.0000 H       1  UNL1        0.0430
     28 H           3.8502    2.9852    0.0000 H       1  UNL1        0.0326
     29 H           3.0659    2.8750    0.0000 H       1  UNL1        0.0326
     30 H           6.2743    0.4261    0.0000 H       1  UNL1        0.0585
     31 H           4.1859   -1.4478    0.0000 H       1  UNL1        0.0585
     32 H           5.3124    3.2224    0.0000 H       1  UNL1        0.0658
     33 H           1.6506    0.8267    0.0000 H       1  UNL1        0.0391
     34 H           1.4878   -0.0348    0.0000 H       1  UNL1        0.0391
     35 H           2.3494   -0.1976    0.0000 H       1  UNL1        0.0391
     36 H           7.3562   -0.7797    0.0000 H       1  UNL1        0.0653
     37 H           5.2678   -2.6536    0.0000 H       1  UNL1        0.0653
     38 H           8.1691    1.1876    0.0000 H       1  UNL1        0.1166
     39 H           8.1691    2.0171    0.0000 H       1  UNL1        0.1166
@<TRIPOS>BOND
     1     1    13    1
     2     1    22    1
     3     2    17    1
     4     2    22    1
     5     3    21    2
     6     4     5    1
     7     4    11    1
     8     4    18    1
     9     5     7    1
    10     5     8    1
    11     5    23    1
    12     6     7    1
    13     6     9    1
    14     6    14    1
    15     6    15    1
    16     7    24    1
    17     7    25    1
    18     8     9   ar
    19     8    10   ar
    20     9    13   ar
    21    10    12    1
    22    10    16   ar
    23    11    12    1
    24    11    26    1
    25    11    27    1
    26    12    28    1
    27    12    29    1
    28    13    17   ar
    29    14    19    2
    30    14    30    1
    31    15    20    2
    32    15    31    1
    33    16    17   ar
    34    16    32    1
    35    18    33    1
    36    18    34    1
    37    18    35    1
    38    19    21    1
    39    19    36    1
    40    20    21    1
    41    20    37    1
    42    22    38    1
    43    22    39    1
