@<TRIPOS>MOLECULE
IMPHY005127
 32 31 0 0 0
SMALL
GASTEIGER

@<TRIPOS>ATOM
      1 O           5.4641    0.7500    0.0000 O.3     1  UNL1       -0.4646
      2 O           4.5981   -0.7500    0.0000 O.2     1  UNL1       -0.2509
      3 C           8.0622    0.2500    0.0000 C.3     1  UNL1       -0.0500
      4 C           8.9282    0.7500    0.0000 C.3     1  UNL1       -0.0532
      5 C           7.1962    0.7500    0.0000 C.3     1  UNL1       -0.0185
      6 C           9.7942    0.2500    0.0000 C.3     1  UNL1       -0.0559
      7 C           6.3301    0.2500    0.0000 C.3     1  UNL1        0.0925
      8 C          10.6603    0.7500    0.0000 C.3     1  UNL1       -0.0653
      9 C           3.7320    0.7500    0.0000 C.3     1  UNL1        0.0447
     10 C           2.8660    0.2500    0.0000 C.3     1  UNL1       -0.0458
     11 C           4.5981    0.2500    0.0000 C.2     1  UNL1        0.3071
     12 C           2.0000    0.7500    0.0000 C.3     1  UNL1       -0.0648
     13 H           7.6636   -0.2249    0.0000 H       1  UNL1        0.0266
     14 H           8.4607   -0.2249    0.0000 H       1  UNL1        0.0266
     15 H           9.3267    1.2250    0.0000 H       1  UNL1        0.0265
     16 H           8.5297    1.2250    0.0000 H       1  UNL1        0.0265
     17 H           7.5947    1.2250    0.0000 H       1  UNL1        0.0298
     18 H           6.7976    1.2250    0.0000 H       1  UNL1        0.0298
     19 H           9.3957   -0.2249    0.0000 H       1  UNL1        0.0263
     20 H          10.1928   -0.2249    0.0000 H       1  UNL1        0.0263
     21 H           5.9316   -0.2249    0.0000 H       1  UNL1        0.0697
     22 H           6.7287   -0.2249    0.0000 H       1  UNL1        0.0697
     23 H          10.9703    0.2131    0.0000 H       1  UNL1        0.0230
     24 H          11.1972    1.0600    0.0000 H       1  UNL1        0.0230
     25 H          10.3503    1.2869    0.0000 H       1  UNL1        0.0230
     26 H           4.1306    1.2250    0.0000 H       1  UNL1        0.0377
     27 H           3.3335    1.2250    0.0000 H       1  UNL1        0.0377
     28 H           2.4675   -0.2249    0.0000 H       1  UNL1        0.0268
     29 H           3.2646   -0.2249    0.0000 H       1  UNL1        0.0268
     30 H           2.3100    1.2869    0.0000 H       1  UNL1        0.0230
     31 H           1.4631    1.0600    0.0000 H       1  UNL1        0.0230
     32 H           1.6900    0.2131    0.0000 H       1  UNL1        0.0230
@<TRIPOS>BOND
     1     1     7    1
     2     1    11    1
     3     2    11    2
     4     3     4    1
     5     3     5    1
     6     3    13    1
     7     3    14    1
     8     4     6    1
     9     4    15    1
    10     4    16    1
    11     5     7    1
    12     5    17    1
    13     5    18    1
    14     6     8    1
    15     6    19    1
    16     6    20    1
    17     7    21    1
    18     7    22    1
    19     8    23    1
    20     8    24    1
    21     8    25    1
    22     9    10    1
    23     9    11    1
    24     9    26    1
    25     9    27    1
    26    10    12    1
    27    10    28    1
    28    10    29    1
    29    12    30    1
    30    12    31    1
    31    12    32    1
