@<TRIPOS>MOLECULE
IMPHY016520
 46 46 0 0 0
SMALL
GASTEIGER

@<TRIPOS>ATOM
      1 O           2.8090    2.9527    0.0000 O.2     1  UNL1       -0.4678
      2 C           7.0949   -0.3210    0.0000 C.3     1  UNL1       -0.0531
      3 C           6.8870    0.6571    0.0000 C.3     1  UNL1       -0.0531
      4 C           8.0460   -0.6300    0.0000 C.3     1  UNL1       -0.0531
      5 C           5.9360    0.9661    0.0000 C.3     1  UNL1       -0.0530
      6 C           8.2539   -1.6082    0.0000 C.3     1  UNL1       -0.0530
      7 C           5.7281    1.9443    0.0000 C.3     1  UNL1       -0.0527
      8 C           9.2050   -1.9172    0.0000 C.3     1  UNL1       -0.0528
      9 C           4.7770    2.2533    0.0000 C.3     1  UNL1       -0.0462
     10 C           9.4129   -2.8954    0.0000 C.3     1  UNL1       -0.0496
     11 C           4.5691    3.2315    0.0000 C.3     1  UNL1        0.0055
     12 C          10.3639   -3.2044    0.0000 C.3     1  UNL1       -0.0350
     13 C           3.6180    3.5405    0.0000 C.ar    1  UNL1        0.1049
     14 C          10.5718   -4.1825    0.0000 C.2     1  UNL1       -0.0911
     15 C           3.3090    4.4915    0.0000 C.ar    1  UNL1       -0.0207
     16 C           2.3090    4.4915    0.0000 C.ar    1  UNL1       -0.0237
     17 C           2.0000    3.5405    0.0000 C.ar    1  UNL1        0.0921
     18 C          11.5229   -4.4915    0.0000 C.2     1  UNL1       -0.1026
     19 H           6.4753   -0.3427    0.0000 H       1  UNL1        0.0265
     20 H           7.0086   -0.9350    0.0000 H       1  UNL1        0.0265
     21 H           7.5066    0.6788    0.0000 H       1  UNL1        0.0265
     22 H           6.9733    1.2711    0.0000 H       1  UNL1        0.0265
     23 H           8.6656   -0.6084    0.0000 H       1  UNL1        0.0265
     24 H           8.1323   -0.0161    0.0000 H       1  UNL1        0.0265
     25 H           5.3164    0.9445    0.0000 H       1  UNL1        0.0265
     26 H           5.8497    0.3522    0.0000 H       1  UNL1        0.0265
     27 H           7.6343   -1.6298    0.0000 H       1  UNL1        0.0265
     28 H           8.1676   -2.2222    0.0000 H       1  UNL1        0.0265
     29 H           6.3477    1.9659    0.0000 H       1  UNL1        0.0265
     30 H           5.8144    2.5583    0.0000 H       1  UNL1        0.0265
     31 H           9.8246   -1.8956    0.0000 H       1  UNL1        0.0265
     32 H           9.2912   -1.3032    0.0000 H       1  UNL1        0.0265
     33 H           4.1574    2.2317    0.0000 H       1  UNL1        0.0269
     34 H           4.6907    1.6393    0.0000 H       1  UNL1        0.0269
     35 H           8.7932   -2.9170    0.0000 H       1  UNL1        0.0268
     36 H           9.3266   -3.5093    0.0000 H       1  UNL1        0.0268
     37 H           5.1887    3.2531    0.0000 H       1  UNL1        0.0343
     38 H           4.6554    3.8454    0.0000 H       1  UNL1        0.0343
     39 H          10.9836   -3.1827    0.0000 H       1  UNL1        0.0307
     40 H          10.4502   -2.5904    0.0000 H       1  UNL1        0.0307
     41 H          10.1111   -4.5974    0.0000 H       1  UNL1        0.0566
     42 H           3.6734    4.9931    0.0000 H       1  UNL1        0.0652
     43 H           1.9446    4.9931    0.0000 H       1  UNL1        0.0649
     44 H           1.4103    3.3489    0.0000 H       1  UNL1        0.1029
     45 H          11.6518   -5.0980    0.0000 H       1  UNL1        0.0532
     46 H          11.9836   -4.0767    0.0000 H       1  UNL1        0.0532
@<TRIPOS>BOND
     1     1    13   ar
     2     1    17   ar
     3     2     3    1
     4     2     4    1
     5     2    19    1
     6     2    20    1
     7     3     5    1
     8     3    21    1
     9     3    22    1
    10     4     6    1
    11     4    23    1
    12     4    24    1
    13     5     7    1
    14     5    25    1
    15     5    26    1
    16     6     8    1
    17     6    27    1
    18     6    28    1
    19     7     9    1
    20     7    29    1
    21     7    30    1
    22     8    10    1
    23     8    31    1
    24     8    32    1
    25     9    11    1
    26     9    33    1
    27     9    34    1
    28    10    12    1
    29    10    35    1
    30    10    36    1
    31    11    13    1
    32    11    37    1
    33    11    38    1
    34    12    14    1
    35    12    39    1
    36    12    40    1
    37    13    15   ar
    38    14    18    2
    39    14    41    1
    40    15    16   ar
    41    15    42    1
    42    16    17   ar
    43    16    43    1
    44    17    44    1
    45    18    45    1
    46    18    46    1
