@<TRIPOS>MOLECULE
IMPHY008399
 85 90 0 0 0
SMALL
GASTEIGER

@<TRIPOS>ATOM
      1 O           8.4638    2.0850    0.0000 O.3     1  UNL1       -0.3552
      2 O           7.0539    0.3177    0.0000 O.3     1  UNL1       -0.4799
      3 O           8.5801   -2.4447    0.0000 O.3     1  UNL1       -0.3753
      4 O          11.0516    0.5497    0.0000 O.2     1  UNL1       -0.2938
      5 O           7.0539   -2.4447    0.0000 O.2     1  UNL1       -0.2913
      6 O           5.5276   -2.4447    0.0000 O.3     1  UNL1       -0.5052
      7 O           3.9040    0.4396    0.0000 O.3     1  UNL1       -0.4811
      8 O           9.6573    3.5070    0.0000 O.2     1  UNL1       -0.2961
      9 C           7.8170   -0.1229    0.0000 C.3     1  UNL1        0.1640
     10 C           8.5801    0.3177    0.0000 C.3     1  UNL1        0.0322
     11 C           8.6008    1.0814    0.0000 C.3     1  UNL1        0.1716
     12 C           7.8170   -1.0041    0.0000 C.3     1  UNL1        0.0923
     13 C           9.3433   -1.0041    0.0000 C.3     1  UNL1        0.0480
     14 C           9.2275    1.3359    0.0000 C.3     1  UNL1        0.0720
     15 C           9.3433   -0.1229    0.0000 C.3     1  UNL1       -0.0318
     16 C           8.5801   -1.4447    0.0000 C.3     1  UNL1        0.0819
     17 C          10.0891    0.2785    0.0000 C.2     1  UNL1        0.1747
     18 C           7.6251    1.3002    0.0000 C.3     1  UNL1        0.0060
     19 C           7.0539   -1.4447    0.0000 C.2     1  UNL1        0.1797
     20 C           9.9641    2.0122    0.0000 C.3     1  UNL1       -0.0356
     21 C          10.2139    1.1718    0.0000 C.3     1  UNL1       -0.0356
     22 C           6.2907   -0.1229    0.0000 C.ar    1  UNL1        0.1425
     23 C           6.2907   -1.0041    0.0000 C.ar    1  UNL1        0.1019
     24 C           7.3267    2.2547    0.0000 C.2     1  UNL1       -0.0748
     25 C           5.5276    0.3177    0.0000 C.ar    1  UNL1        0.0412
     26 C           9.4462   -2.9447    0.0000 C.3     1  UNL1        0.0453
     27 C           5.5276   -1.4447    0.0000 C.ar    1  UNL1        0.1415
     28 C           8.0041    2.9903    0.0000 C.2     1  UNL1       -0.0151
     29 C           4.7644   -0.1229    0.0000 C.ar    1  UNL1        0.1393
     30 C           4.7644   -1.0041    0.0000 C.ar    1  UNL1        0.0591
     31 C           5.5276    1.3177    0.0000 C.3     1  UNL1       -0.0023
     32 C           9.4462   -3.9447    0.0000 C.3     1  UNL1       -0.0416
     33 C           7.7058    3.9447    0.0000 C.3     1  UNL1       -0.0370
     34 C           3.9040   -1.5666    0.0000 C.2     1  UNL1       -0.0478
     35 C           8.9799    2.7714    0.0000 C.2     1  UNL1        0.1457
     36 C           2.9999   -0.0496    0.0000 C.3     1  UNL1        0.1235
     37 C           4.6616    1.8177    0.0000 C.2     1  UNL1       -0.0807
     38 C           2.9999   -1.0775    0.0000 C.2     1  UNL1       -0.0408
     39 C           2.0000   -0.0357    0.0000 C.3     1  UNL1       -0.0215
     40 C           2.5120    0.8233    0.0000 C.3     1  UNL1       -0.0215
     41 C           4.6615    2.8177    0.0000 C.2     1  UNL1       -0.0793
     42 C           3.7955    3.3176    0.0000 C.3     1  UNL1       -0.0440
     43 C           5.5276    3.3177    0.0000 C.3     1  UNL1       -0.0440
     44 H           9.1823    0.4653    0.0000 H       1  UNL1        0.0369
     45 H           8.3539   -0.6941    0.0000 H       1  UNL1        0.0447
     46 H           9.7810   -1.4432    0.0000 H       1  UNL1        0.0404
     47 H           9.9538   -0.2306    0.0000 H       1  UNL1        0.0278
     48 H           9.5553    0.4597    0.0000 H       1  UNL1        0.0278
     49 H           8.0432   -1.7547    0.0000 H       1  UNL1        0.0611
     50 H           7.0102    1.2208    0.0000 H       1  UNL1        0.0341
     51 H           7.5965    0.6809    0.0000 H       1  UNL1        0.0341
     52 H          10.3834    1.5555    0.0000 H       1  UNL1        0.0257
     53 H          10.4208    2.4316    0.0000 H       1  UNL1        0.0257
     54 H           9.5448    2.4689    0.0000 H       1  UNL1        0.0257
     55 H          10.1122    0.5602    0.0000 H       1  UNL1        0.0257
     56 H          10.8255    1.0701    0.0000 H       1  UNL1        0.0257
     57 H          10.3156    1.7834    0.0000 H       1  UNL1        0.0257
     58 H           6.7217    2.3903    0.0000 H       1  UNL1        0.0577
     59 H          10.0567   -3.0524    0.0000 H       1  UNL1        0.0557
     60 H           9.6582   -2.3621    0.0000 H       1  UNL1        0.0557
     61 H           6.1382    1.2100    0.0000 H       1  UNL1        0.0358
     62 H           5.7396    1.9003    0.0000 H       1  UNL1        0.0358
     63 H           8.8262   -3.9447    0.0000 H       1  UNL1        0.0252
     64 H           9.4462   -4.5647    0.0000 H       1  UNL1        0.0252
     65 H          10.0662   -3.9447    0.0000 H       1  UNL1        0.0252
     66 H           4.9906   -2.7547    0.0000 H       1  UNL1        0.2922
     67 H           8.2975    4.1297    0.0000 H       1  UNL1        0.0278
     68 H           7.5208    4.5365    0.0000 H       1  UNL1        0.0278
     69 H           7.1140    3.7597    0.0000 H       1  UNL1        0.0278
     70 H           3.9298   -2.1861    0.0000 H       1  UNL1        0.0624
     71 H           9.1649    2.1797    0.0000 H       1  UNL1        0.1078
     72 H           4.1246    1.5077    0.0000 H       1  UNL1        0.0575
     73 H           2.4673   -1.3949    0.0000 H       1  UNL1        0.0611
     74 H           2.0086    0.5842    0.0000 H       1  UNL1        0.0271
     75 H           1.3801   -0.0271    0.0000 H       1  UNL1        0.0271
     76 H           1.9914   -0.6556    0.0000 H       1  UNL1        0.0271
     77 H           3.0531    1.1258    0.0000 H       1  UNL1        0.0271
     78 H           2.2094    1.3645    0.0000 H       1  UNL1        0.0271
     79 H           1.9708    0.5208    0.0000 H       1  UNL1        0.0271
     80 H           4.1055    3.8546    0.0000 H       1  UNL1        0.0274
     81 H           3.2586    3.6276    0.0000 H       1  UNL1        0.0274
     82 H           3.4855    2.7807    0.0000 H       1  UNL1        0.0274
     83 H           5.8376    2.7807    0.0000 H       1  UNL1        0.0274
     84 H           6.0645    3.6277    0.0000 H       1  UNL1        0.0274
     85 H           5.2176    3.8546    0.0000 H       1  UNL1        0.0274
@<TRIPOS>BOND
     1     1    11    1
     2     1    14    1
     3     2     9    1
     4     2    22    1
     5     3    16    1
     6     3    26    1
     7     4    17    2
     8     5    19    2
     9     6    27    1
    10     6    66    1
    11     7    29    1
    12     7    36    1
    13     8    35    2
    14     9    10    1
    15     9    11    1
    16     9    12    1
    17    10    14    1
    18    10    15    1
    19    10    44    1
    20    11    17    1
    21    11    18    1
    22    12    16    1
    23    12    19    1
    24    12    45    1
    25    13    15    1
    26    13    16    1
    27    13    17    1
    28    13    46    1
    29    14    20    1
    30    14    21    1
    31    15    47    1
    32    15    48    1
    33    16    49    1
    34    18    24    1
    35    18    50    1
    36    18    51    1
    37    19    23    1
    38    20    52    1
    39    20    53    1
    40    20    54    1
    41    21    55    1
    42    21    56    1
    43    21    57    1
    44    22    23   ar
    45    22    25   ar
    46    23    27   ar
    47    24    28    2
    48    24    58    1
    49    25    29   ar
    50    25    31    1
    51    26    32    1
    52    26    59    1
    53    26    60    1
    54    27    30   ar
    55    28    33    1
    56    28    35    1
    57    29    30   ar
    58    30    34    1
    59    31    37    1
    60    31    61    1
    61    31    62    1
    62    32    63    1
    63    32    64    1
    64    32    65    1
    65    33    67    1
    66    33    68    1
    67    33    69    1
    68    34    38    2
    69    34    70    1
    70    35    71    1
    71    36    38    1
    72    36    39    1
    73    36    40    1
    74    37    41    2
    75    37    72    1
    76    38    73    1
    77    39    74    1
    78    39    75    1
    79    39    76    1
    80    40    77    1
    81    40    78    1
    82    40    79    1
    83    41    42    1
    84    41    43    1
    85    42    80    1
    86    42    81    1
    87    42    82    1
    88    43    83    1
    89    43    84    1
    90    43    85    1
