@<TRIPOS>MOLECULE
IMPHY016976
 40 42 0 0 0
SMALL
GASTEIGER

@<TRIPOS>ATOM
      1 O           2.3784   -0.8612    0.0000 O.3     1  UNL1       -0.3915
      2 C           4.9557   -0.7073    0.0000 C.3     1  UNL1       -0.0201
      3 C           4.0547   -0.2734    0.0000 C.3     1  UNL1       -0.0034
      4 C           3.8322    0.7015    0.0000 C.3     1  UNL1       -0.0227
      5 C           4.4557    1.4834    0.0000 C.3     1  UNL1       -0.0141
      6 C           5.0625    0.4695    0.0000 C.3     1  UNL1       -0.0397
      7 C           4.8197   -1.6920    0.0000 C.3     1  UNL1       -0.0355
      8 C           3.3696   -0.9937    0.0000 C.3     1  UNL1        0.0593
      9 C           5.8566   -0.2734    0.0000 C.3     1  UNL1       -0.0431
     10 C           3.8414   -1.8687    0.0000 C.3     1  UNL1       -0.0235
     11 C           5.4557    1.4834    0.0000 C.2     1  UNL1       -0.0730
     12 C           6.0792    0.7015    0.0000 C.3     1  UNL1       -0.0312
     13 C           3.1742    1.4546    0.0000 C.3     1  UNL1       -0.0589
     14 C           2.9127    0.3085    0.0000 C.3     1  UNL1       -0.0589
     15 C           5.5413   -2.3843    0.0000 C.3     1  UNL1       -0.0618
     16 C           5.8896    2.3843    0.0000 C.2     1  UNL1       -0.0992
     17 H           3.2889    0.0954    0.0000 H       1  UNL1        0.0336
     18 H           4.2665    2.3120    0.0000 H       1  UNL1        0.0351
     19 H           5.6326    0.2257    0.0000 H       1  UNL1        0.0277
     20 H           5.4703    0.9365    0.0000 H       1  UNL1        0.0277
     21 H           4.6406   -2.2856    0.0000 H       1  UNL1        0.0304
     22 H           3.1636   -0.4089    0.0000 H       1  UNL1        0.0596
     23 H           5.9946   -0.8779    0.0000 H       1  UNL1        0.0274
     24 H           6.4766   -0.2734    0.0000 H       1  UNL1        0.0274
     25 H           3.2678   -2.1040    0.0000 H       1  UNL1        0.0293
     26 H           4.0151   -2.4638    0.0000 H       1  UNL1        0.0293
     27 H           6.6378    0.4325    0.0000 H       1  UNL1        0.0310
     28 H           6.4657    1.1863    0.0000 H       1  UNL1        0.0310
     29 H           3.6412    1.8625    0.0000 H       1  UNL1        0.0235
     30 H           2.7663    1.9215    0.0000 H       1  UNL1        0.0235
     31 H           2.7073    1.0467    0.0000 H       1  UNL1        0.0235
     32 H           2.6690    0.8786    0.0000 H       1  UNL1        0.0235
     33 H           2.3426    0.0648    0.0000 H       1  UNL1        0.0235
     34 H           3.1563   -0.2616    0.0000 H       1  UNL1        0.0235
     35 H           5.1120   -2.8317    0.0000 H       1  UNL1        0.0233
     36 H           5.9887   -2.8136    0.0000 H       1  UNL1        0.0233
     37 H           5.9705   -1.9369    0.0000 H       1  UNL1        0.0233
     38 H           2.0000   -1.3523    0.0000 H       1  UNL1        0.2098
     39 H           6.5078    2.4307    0.0000 H       1  UNL1        0.0534
     40 H           5.5403    2.8966    0.0000 H       1  UNL1        0.0534
@<TRIPOS>BOND
     1     8     1    1
     2     1    38    1
     3     2     3    1
     4     2     6    1
     5     2     7    1
     6     2     9    1
     7     3     4    1
     8     3     8    1
     9     3    17    1
    10     4     5    1
    11     4    13    1
    12     4    14    1
    13     5     6    1
    14     5    11    1
    15     5    18    1
    16     6    19    1
    17     6    20    1
    18     7    10    1
    19     7    15    1
    20     7    21    1
    21     8    10    1
    22     8    22    1
    23     9    12    1
    24     9    23    1
    25     9    24    1
    26    10    25    1
    27    10    26    1
    28    11    12    1
    29    11    16    2
    30    12    27    1
    31    12    28    1
    32    13    29    1
    33    13    30    1
    34    13    31    1
    35    14    32    1
    36    14    33    1
    37    14    34    1
    38    15    35    1
    39    15    36    1
    40    15    37    1
    41    16    39    1
    42    16    40    1
