@<TRIPOS>MOLECULE
IMPHY009641
 78 80 0 0 0
SMALL
GASTEIGER

@<TRIPOS>ATOM
      1 O           7.9033   -3.2971    0.0000 O.3     1  UNL1       -0.3638
      2 O           9.6990   -1.5099    0.0000 O.3     1  UNL1       -0.4584
      3 O           7.1602   -0.0099    0.0000 O.3     1  UNL1       -0.3833
      4 O           5.3602   -2.0307    0.0000 O.2     1  UNL1       -0.4604
      5 O           6.2778   -3.5445    0.0000 O.3     1  UNL1       -0.4243
      6 O           5.4176    1.0347    0.0000 O.3     1  UNL1       -0.4574
      7 O           9.6990    0.2221    0.0000 O.2     1  UNL1       -0.2512
      8 O           4.5459   -3.5645    0.0000 O.2     1  UNL1       -0.2507
      9 O           6.3009    2.5246    0.0000 O.2     1  UNL1       -0.2466
     10 O           4.5806    3.5445    0.0000 O.3     1  UNL1       -0.4496
     11 O           2.8486    3.5645    0.0000 O.2     1  UNL1       -0.2508
     12 C           8.1112   -2.3189    0.0000 C.3     1  UNL1        0.1420
     13 C           7.1602   -2.0099    0.0000 C.3     1  UNL1        0.1007
     14 C           7.1602   -1.0099    0.0000 C.3     1  UNL1        0.1091
     15 C           8.6990   -1.5099    0.0000 C.3     1  UNL1        0.1375
     16 C           8.8544   -2.9881    0.0000 C.3     1  UNL1        0.0818
     17 C           8.1112   -0.7009    0.0000 C.3     1  UNL1        0.0208
     18 C           6.2662   -2.5446    0.0000 C.3     1  UNL1        0.2539
     19 C           6.2662   -0.4753    0.0000 C.2     1  UNL1        0.0336
     20 C           5.3602   -0.9891    0.0000 C.2     1  UNL1        0.0942
     21 C           6.2778    0.5247    0.0000 C.3     1  UNL1        0.1194
     22 C          10.1990   -0.6439    0.0000 C.2     1  UNL1        0.3043
     23 C           5.4176   -4.0545    0.0000 C.2     1  UNL1        0.3102
     24 C          11.1990   -0.6439    0.0000 C.3     1  UNL1        0.0332
     25 C           5.4292   -5.0544    0.0000 C.3     1  UNL1        0.0474
     26 C           5.4292    2.0346    0.0000 C.2     1  UNL1        0.3489
     27 C           4.5690   -5.5644    0.0000 C.3     1  UNL1       -0.0367
     28 C           4.5690    2.5446    0.0000 C.3     1  UNL1        0.2011
     29 C           4.5806   -6.5643    0.0000 C.3     1  UNL1       -0.0622
     30 C           3.6972   -5.0744    0.0000 C.3     1  UNL1       -0.0622
     31 C           3.6972    2.0546    0.0000 C.3     1  UNL1        0.0011
     32 C           2.8371    2.5646    0.0000 C.3     1  UNL1       -0.0588
     33 C           3.6857    1.0547    0.0000 C.3     1  UNL1       -0.0588
     34 C           3.7204    4.0545    0.0000 C.2     1  UNL1        0.3081
     35 C           3.7319    5.0544    0.0000 C.3     1  UNL1        0.0473
     36 C           2.8718    5.5644    0.0000 C.3     1  UNL1       -0.0367
     37 C           2.8833    6.5643    0.0000 C.3     1  UNL1       -0.0622
     38 C           2.0000    5.0744    0.0000 C.3     1  UNL1       -0.0622
     39 H           7.2555   -2.8546    0.0000 H       1  UNL1        0.0435
     40 H           8.9805   -0.9575    0.0000 H       1  UNL1        0.0765
     41 H           9.1455   -3.5355    0.0000 H       1  UNL1        0.0590
     42 H           9.3430   -2.6064    0.0000 H       1  UNL1        0.0590
     43 H           8.6482   -0.3909    0.0000 H       1  UNL1        0.0333
     44 H           7.8591   -0.1345    0.0000 H       1  UNL1        0.0333
     45 H           6.8073   -2.8473    0.0000 H       1  UNL1        0.1211
     46 H           7.6971    0.3001    0.0000 H       1  UNL1        0.2106
     47 H           4.8244   -0.6770    0.0000 H       1  UNL1        0.1026
     48 H           6.8871    0.4100    0.0000 H       1  UNL1        0.0747
     49 H           6.4966    1.1048    0.0000 H       1  UNL1        0.0747
     50 H          11.1990   -1.2639    0.0000 H       1  UNL1        0.0342
     51 H          11.8190   -0.6439    0.0000 H       1  UNL1        0.0342
     52 H          11.1990   -0.0239    0.0000 H       1  UNL1        0.0342
     53 H           5.6480   -5.6345    0.0000 H       1  UNL1        0.0380
     54 H           6.0385   -4.9397    0.0000 H       1  UNL1        0.0380
     55 H           4.5618   -4.9444    0.0000 H       1  UNL1        0.0301
     56 H           4.0357    2.8608    0.0000 H       1  UNL1        0.0855
     57 H           3.9606   -6.5715    0.0000 H       1  UNL1        0.0232
     58 H           4.5877   -7.1843    0.0000 H       1  UNL1        0.0232
     59 H           4.0010   -4.5340    0.0000 H       1  UNL1        0.0232
     60 H           5.2005   -6.5572    0.0000 H       1  UNL1        0.0232
     61 H           3.1568   -4.7707    0.0000 H       1  UNL1        0.0232
     62 H           3.3935   -5.6149    0.0000 H       1  UNL1        0.0232
     63 H           4.2306    1.7384    0.0000 H       1  UNL1        0.0337
     64 H           3.0657    1.0619    0.0000 H       1  UNL1        0.0234
     65 H           3.6785    0.4347    0.0000 H       1  UNL1        0.0234
     66 H           4.3056    1.0475    0.0000 H       1  UNL1        0.0234
     67 H           3.1532    3.0979    0.0000 H       1  UNL1        0.0234
     68 H           2.3037    2.8808    0.0000 H       1  UNL1        0.0234
     69 H           2.5209    2.0313    0.0000 H       1  UNL1        0.0234
     70 H           4.3412    4.9397    0.0000 H       1  UNL1        0.0380
     71 H           3.9507    5.6345    0.0000 H       1  UNL1        0.0380
     72 H           2.8646    4.9444    0.0000 H       1  UNL1        0.0301
     73 H           3.5033    6.5572    0.0000 H       1  UNL1        0.0232
     74 H           2.8905    7.1843    0.0000 H       1  UNL1        0.0232
     75 H           1.6962    5.6149    0.0000 H       1  UNL1        0.0232
     76 H           1.4595    4.7707    0.0000 H       1  UNL1        0.0232
     77 H           2.3038    4.5340    0.0000 H       1  UNL1        0.0232
     78 H           2.2634    6.5715    0.0000 H       1  UNL1        0.0232
@<TRIPOS>BOND
     1    12     1    1
     2     1    16    1
     3     2    15    1
     4     2    22    1
     5    14     3    1
     6     3    46    1
     7     4    18    1
     8     4    20    1
     9     5    18    1
    10     5    23    1
    11     6    21    1
    12     6    26    1
    13     7    22    2
    14     8    23    2
    15     9    26    2
    16    10    28    1
    17    10    34    1
    18    11    34    2
    19    12    13    1
    20    12    15    1
    21    12    16    1
    22    13    14    1
    23    13    18    1
    24    13    39    1
    25    14    17    1
    26    14    19    1
    27    15    17    1
    28    15    40    1
    29    16    41    1
    30    16    42    1
    31    17    43    1
    32    17    44    1
    33    18    45    1
    34    19    20    2
    35    19    21    1
    36    20    47    1
    37    21    48    1
    38    21    49    1
    39    22    24    1
    40    23    25    1
    41    24    50    1
    42    24    51    1
    43    24    52    1
    44    25    27    1
    45    25    53    1
    46    25    54    1
    47    26    28    1
    48    27    29    1
    49    27    30    1
    50    27    55    1
    51    28    31    1
    52    28    56    1
    53    29    57    1
    54    29    58    1
    55    29    60    1
    56    30    59    1
    57    30    61    1
    58    30    62    1
    59    31    32    1
    60    31    33    1
    61    31    63    1
    62    32    67    1
    63    32    68    1
    64    32    69    1
    65    33    64    1
    66    33    65    1
    67    33    66    1
    68    34    35    1
    69    35    36    1
    70    35    70    1
    71    35    71    1
    72    36    37    1
    73    36    38    1
    74    36    72    1
    75    37    73    1
    76    37    74    1
    77    37    78    1
    78    38    75    1
    79    38    76    1
    80    38    77    1
