@<TRIPOS>MOLECULE
IMPHY015512
 25 26 0 0 0
SMALL
GASTEIGER

@<TRIPOS>ATOM
      1 C           3.3066   -1.0019    0.0000 C.3     1  UNL1       -0.0379
      2 C           2.3827   -0.6193    0.0000 C.3     1  UNL1       -0.0379
      3 C           2.5130   -1.6112    0.0000 C.3     1  UNL1       -0.0469
      4 C           4.2304   -0.6193    0.0000 C.3     1  UNL1       -0.0499
      5 C           2.0000    0.3046    0.0000 C.3     1  UNL1       -0.0499
      6 C           4.6131    0.3046    0.0000 C.3     1  UNL1       -0.0528
      7 C           2.3827    1.2285    0.0000 C.3     1  UNL1       -0.0528
      8 C           4.2304    1.2285    0.0000 C.3     1  UNL1       -0.0530
      9 C           3.3066    1.6112    0.0000 C.3     1  UNL1       -0.0530
     10 H           3.6166   -1.5388    0.0000 H       1  UNL1        0.0304
     11 H           1.7838   -0.7797    0.0000 H       1  UNL1        0.0304
     12 H           1.9217   -1.7976    0.0000 H       1  UNL1        0.0271
     13 H           2.7993   -2.1611    0.0000 H       1  UNL1        0.0271
     14 H           4.3114   -1.2340    0.0000 H       1  UNL1        0.0268
     15 H           4.8451   -0.7002    0.0000 H       1  UNL1        0.0268
     16 H           1.5081    0.6820    0.0000 H       1  UNL1        0.0268
     17 H           1.5081   -0.0728    0.0000 H       1  UNL1        0.0268
     18 H           5.1050   -0.0728    0.0000 H       1  UNL1        0.0265
     19 H           5.1050    0.6820    0.0000 H       1  UNL1        0.0265
     20 H           2.3018    1.8432    0.0000 H       1  UNL1        0.0265
     21 H           1.7680    1.3094    0.0000 H       1  UNL1        0.0265
     22 H           4.8451    1.3094    0.0000 H       1  UNL1        0.0265
     23 H           4.3114    1.8432    0.0000 H       1  UNL1        0.0265
     24 H           3.6840    2.1031    0.0000 H       1  UNL1        0.0265
     25 H           2.9291    2.1031    0.0000 H       1  UNL1        0.0265
@<TRIPOS>BOND
     1     1     2    1
     2     1     3    1
     3     1     4    1
     4     1    10    1
     5     2     3    1
     6     2     5    1
     7     2    11    1
     8     3    12    1
     9     3    13    1
    10     4     6    1
    11     4    14    1
    12     4    15    1
    13     5     7    1
    14     5    16    1
    15     5    17    1
    16     6     8    1
    17     6    18    1
    18     6    19    1
    19     7     9    1
    20     7    20    1
    21     7    21    1
    22     8     9    1
    23     8    22    1
    24     8    23    1
    25     9    24    1
    26     9    25    1
