@<TRIPOS>MOLECULE
IMPHY009090
 57 61 0 0 0
SMALL
GASTEIGER

@<TRIPOS>ATOM
      1 O           3.9632    2.6245    0.0000 O.3     1  UNL1       -0.4912
      2 O           6.1687   -0.2697    0.0000 O.2     1  UNL1       -0.4541
      3 O           2.5576   -0.5233    0.0000 O.3     1  UNL1       -0.5058
      4 O           3.5688   -2.0578    0.0000 O.2     1  UNL1       -0.2869
      5 O           8.2508   -4.1897    0.0000 O.3     1  UNL1       -0.5033
      6 O           9.8902   -3.0441    0.0000 O.3     1  UNL1       -0.5033
      7 C           6.2102    2.6245    0.0000 C.3     1  UNL1       -0.0258
      8 C           7.2424    2.7638    0.0000 C.3     1  UNL1       -0.0314
      9 C           5.5867    3.4063    0.0000 C.3     1  UNL1       -0.0032
     10 C           7.6304    3.7305    0.0000 C.3     1  UNL1       -0.0476
     11 C           5.9522    4.3817    0.0000 C.3     1  UNL1       -0.0468
     12 C           6.9810    4.5449    0.0000 C.3     1  UNL1       -0.0522
     13 C           5.9876    1.6496    0.0000 C.3     1  UNL1       -0.0170
     14 C           4.5867    3.4063    0.0000 C.3     1  UNL1        0.0927
     15 C           8.1690    2.3878    0.0000 C.3     1  UNL1       -0.0595
     16 C           7.3800    1.7734    0.0000 C.3     1  UNL1       -0.0595
     17 C           5.0867    1.2157    0.0000 C.ar    1  UNL1        0.0377
     18 C           4.1857    1.6496    0.0000 C.ar    1  UNL1        0.1307
     19 C           5.1805    0.1783    0.0000 C.ar    1  UNL1        0.1494
     20 C           3.3161    1.0761    0.0000 C.ar    1  UNL1        0.0228
     21 C           4.3244   -0.4151    0.0000 C.ar    1  UNL1        0.1057
     22 C           3.3860    0.0369    0.0000 C.ar    1  UNL1        0.1347
     23 C           4.3972   -1.4976    0.0000 C.ar    1  UNL1        0.1966
     24 C           6.2664   -1.3503    0.0000 C.ar    1  UNL1        0.1394
     25 C           5.3747   -1.9684    0.0000 C.ar    1  UNL1        0.0288
     26 C           7.1724   -1.7738    0.0000 C.ar    1  UNL1        0.0211
     27 C           7.2586   -2.7700    0.0000 C.ar    1  UNL1       -0.0059
     28 C           7.9920   -1.2009    0.0000 C.ar    1  UNL1       -0.0474
     29 C           8.1646   -3.1935    0.0000 C.ar    1  UNL1        0.1589
     30 C           8.8980   -1.6244    0.0000 C.ar    1  UNL1       -0.0159
     31 C           8.9842   -2.6206    0.0000 C.ar    1  UNL1        0.1583
     32 H           6.6284    2.1668    0.0000 H       1  UNL1        0.0313
     33 H           5.2335    3.9159    0.0000 H       1  UNL1        0.0336
     34 H           8.1578    3.4045    0.0000 H       1  UNL1        0.0271
     35 H           8.0419    4.1943    0.0000 H       1  UNL1        0.0271
     36 H           5.9613    5.0016    0.0000 H       1  UNL1        0.0269
     37 H           5.3430    4.4967    0.0000 H       1  UNL1        0.0269
     38 H           7.5247    4.8428    0.0000 H       1  UNL1        0.0266
     39 H           6.7805    5.1316    0.0000 H       1  UNL1        0.0266
     40 H           6.1256    1.0451    0.0000 H       1  UNL1        0.0318
     41 H           6.6076    1.6496    0.0000 H       1  UNL1        0.0318
     42 H           4.7246    4.0108    0.0000 H       1  UNL1        0.0699
     43 H           4.0281    3.6753    0.0000 H       1  UNL1        0.0699
     44 H           6.7659    1.6880    0.0000 H       1  UNL1        0.0235
     45 H           7.9359    1.8133    0.0000 H       1  UNL1        0.0235
     46 H           7.4654    1.1593    0.0000 H       1  UNL1        0.0235
     47 H           7.9941    1.8587    0.0000 H       1  UNL1        0.0235
     48 H           8.7435    2.1546    0.0000 H       1  UNL1        0.0235
     49 H           8.4022    2.9622    0.0000 H       1  UNL1        0.0235
     50 H           2.7607    1.3516    0.0000 H       1  UNL1        0.0691
     51 H           5.4234   -2.5865    0.0000 H       1  UNL1        0.0693
     52 H           2.0000   -0.2521    0.0000 H       1  UNL1        0.2922
     53 H           6.7504   -3.1252    0.0000 H       1  UNL1        0.0662
     54 H           7.9386   -0.5832    0.0000 H       1  UNL1        0.0626
     55 H           9.4062   -1.2692    0.0000 H       1  UNL1        0.0655
     56 H           7.7426   -4.5449    0.0000 H       1  UNL1        0.2923
     57 H          10.3984   -2.6889    0.0000 H       1  UNL1        0.2923
@<TRIPOS>BOND
     1     1    14    1
     2     1    18    1
     3     2    19   ar
     4     2    24   ar
     5     3    22    1
     6     3    52    1
     7     4    23    2
     8     5    29    1
     9     5    56    1
    10     6    31    1
    11     6    57    1
    12     7     8    1
    13     7     9    1
    14     7    13    1
    15     7    32    1
    16     8    10    1
    17     8    15    1
    18     8    16    1
    19     9    11    1
    20     9    14    1
    21     9    33    1
    22    10    12    1
    23    10    34    1
    24    10    35    1
    25    11    12    1
    26    11    36    1
    27    11    37    1
    28    12    38    1
    29    12    39    1
    30    13    17    1
    31    13    40    1
    32    13    41    1
    33    14    42    1
    34    14    43    1
    35    15    45    1
    36    15    48    1
    37    15    49    1
    38    16    44    1
    39    16    46    1
    40    16    47    1
    41    17    18   ar
    42    17    19   ar
    43    18    20   ar
    44    19    21   ar
    45    20    22   ar
    46    20    50    1
    47    21    22   ar
    48    21    23   ar
    49    23    25   ar
    50    24    25   ar
    51    24    26    1
    52    25    51    1
    53    26    27   ar
    54    26    28   ar
    55    27    29   ar
    56    27    53    1
    57    28    30   ar
    58    28    54    1
    59    29    31   ar
    60    30    31   ar
    61    30    55    1
