@<TRIPOS>MOLECULE
IMPHY007523
 35 37 0 0 0
SMALL
GASTEIGER

@<TRIPOS>ATOM
      1 O           6.3981   -1.0223    0.0000 O.2     1  UNL1       -0.4544
      2 O           4.6497    2.0123    0.0000 O.3     1  UNL1       -0.4942
      3 O           2.8680   -1.0464    0.0000 O.3     1  UNL1       -0.4949
      4 O           6.3981    1.9777    0.0000 O.2     1  UNL1       -0.2869
      5 C           5.5320    0.4777    0.0000 C.ar    1  UNL1        0.1057
      6 C           5.5320   -0.5223    0.0000 C.ar    1  UNL1        0.1462
      7 C           4.6381    1.0124    0.0000 C.ar    1  UNL1        0.1379
      8 C           7.2641   -0.5223    0.0000 C.ar    1  UNL1        0.1392
      9 C           6.3981    0.9777    0.0000 C.ar    1  UNL1        0.1966
     10 C           4.6381   -1.0570    0.0000 C.ar    1  UNL1        0.0233
     11 C           7.2641    0.4777    0.0000 C.ar    1  UNL1        0.0288
     12 C           8.1301   -1.0223    0.0000 C.ar    1  UNL1        0.0174
     13 C           3.7320   -0.5431    0.0000 C.ar    1  UNL1        0.1271
     14 C           3.7320    0.4985    0.0000 C.ar    1  UNL1        0.0227
     15 C           8.1301   -2.0223    0.0000 C.ar    1  UNL1       -0.0511
     16 C           8.9962   -0.5223    0.0000 C.ar    1  UNL1       -0.0511
     17 C           8.9962   -2.5223    0.0000 C.ar    1  UNL1       -0.0611
     18 C           9.8622   -1.0223    0.0000 C.ar    1  UNL1       -0.0611
     19 C           9.8622   -2.0223    0.0000 C.ar    1  UNL1       -0.0617
     20 C           3.7895    2.5223    0.0000 C.3     1  UNL1        0.0788
     21 C           2.0000   -0.5498    0.0000 C.3     1  UNL1        0.0788
     22 H           4.6453   -1.6769    0.0000 H       1  UNL1        0.0691
     23 H           7.8010    0.7877    0.0000 H       1  UNL1        0.0693
     24 H           3.1963    0.8106    0.0000 H       1  UNL1        0.0691
     25 H           7.5932   -2.3323    0.0000 H       1  UNL1        0.0625
     26 H           8.9962    0.0977    0.0000 H       1  UNL1        0.0625
     27 H           8.9962   -3.1423    0.0000 H       1  UNL1        0.0618
     28 H          10.3991   -0.7123    0.0000 H       1  UNL1        0.0618
     29 H          10.3991   -2.3323    0.0000 H       1  UNL1        0.0618
     30 H           4.1057    3.0556    0.0000 H       1  UNL1        0.0660
     31 H           3.2562    2.8385    0.0000 H       1  UNL1        0.0660
     32 H           3.4733    1.9890    0.0000 H       1  UNL1        0.0660
     33 H           2.3079   -0.0117    0.0000 H       1  UNL1        0.0660
     34 H           1.4619   -0.2419    0.0000 H       1  UNL1        0.0660
     35 H           1.6921   -1.0879    0.0000 H       1  UNL1        0.0660
@<TRIPOS>BOND
     1     1     6   ar
     2     1     8   ar
     3     2     7    1
     4     2    20    1
     5     3    13    1
     6     3    21    1
     7     4     9    2
     8     5     6   ar
     9     5     7   ar
    10     5     9   ar
    11     6    10   ar
    12     7    14   ar
    13     8    11   ar
    14     8    12    1
    15     9    11   ar
    16    10    13   ar
    17    10    22    1
    18    11    23    1
    19    12    15   ar
    20    12    16   ar
    21    13    14   ar
    22    14    24    1
    23    15    17   ar
    24    15    25    1
    25    16    18   ar
    26    16    26    1
    27    17    19   ar
    28    17    27    1
    29    18    19   ar
    30    18    28    1
    31    19    29    1
    32    20    30    1
    33    20    31    1
    34    20    32    1
    35    21    33    1
    36    21    34    1
    37    21    35    1
