@<TRIPOS>MOLECULE
IMPHY010810
 33 35 0 0 0
SMALL
GASTEIGER

@<TRIPOS>ATOM
      1 O           2.5836   -2.0894    0.0000 O.3     1  UNL1       -0.4911
      2 O           3.5080    1.2468    0.0000 O.2     1  UNL1       -0.5058
      3 O           7.0321   -0.7878    0.0000 O.2     1  UNL1       -0.2832
      4 O           7.0479    1.2605    0.0000 O.2     1  UNL1       -0.2834
      5 C           2.5836   -0.4799    0.0000 C.3     1  UNL1        0.0196
      6 C           3.5298   -0.7846    0.0000 C.ar    1  UNL1        0.0116
      7 C           4.3958   -0.2846    0.0000 C.ar    1  UNL1        0.0350
      8 C           2.0000   -1.2846    0.0000 C.3     1  UNL1        0.0962
      9 C           3.5298   -1.7846    0.0000 C.ar    1  UNL1        0.1250
     10 C           5.2619   -0.7846    0.0000 C.ar    1  UNL1        0.0396
     11 C           2.2729    0.4706    0.0000 C.3     1  UNL1       -0.0551
     12 C           5.2619   -1.7846    0.0000 C.ar    1  UNL1       -0.0354
     13 C           4.3958   -2.2846    0.0000 C.ar    1  UNL1       -0.0160
     14 C           4.3798    0.7569    0.0000 C.2     1  UNL1        0.1317
     15 C           6.1719   -0.2778    0.0000 C.2     1  UNL1        0.2336
     16 C           5.2778    1.2846    0.0000 C.2     1  UNL1        0.0420
     17 C           6.1799    0.7638    0.0000 C.2     1  UNL1        0.2322
     18 C           6.1279   -2.2846    0.0000 C.3     1  UNL1       -0.0389
     19 C           5.2740    2.2846    0.0000 C.3     1  UNL1       -0.0324
     20 H           1.9711   -0.3837    0.0000 H       1  UNL1        0.0380
     21 H           1.5391   -0.8699    0.0000 H       1  UNL1        0.0702
     22 H           1.5391   -1.6994    0.0000 H       1  UNL1        0.0702
     23 H           2.8623    0.6632    0.0000 H       1  UNL1        0.0237
     24 H           2.0803    1.0600    0.0000 H       1  UNL1        0.0237
     25 H           1.6836    0.2780    0.0000 H       1  UNL1        0.0237
     26 H           4.3958   -2.9046    0.0000 H       1  UNL1        0.0657
     27 H           5.8179   -2.8216    0.0000 H       1  UNL1        0.0278
     28 H           6.6648   -2.5946    0.0000 H       1  UNL1        0.0278
     29 H           6.4379   -1.7477    0.0000 H       1  UNL1        0.0278
     30 H           5.8940    2.2870    0.0000 H       1  UNL1        0.0280
     31 H           5.2716    2.9046    0.0000 H       1  UNL1        0.0280
     32 H           4.6540    2.2822    0.0000 H       1  UNL1        0.0280
     33 H           3.5009    1.8668    0.0000 H       1  UNL1        0.2922
@<TRIPOS>BOND
     1     1     8    1
     2     1     9    1
     3     2    14    1
     4     2    33    1
     5     3    15    2
     6     4    17    2
     7     5     6    1
     8     5     8    1
     9     5    11    1
    10     5    20    1
    11     6     7   ar
    12     6     9   ar
    13     7    10   ar
    14     7    14    1
    15     8    21    1
    16     8    22    1
    17     9    13   ar
    18    10    12   ar
    19    10    15    1
    20    11    23    1
    21    11    24    1
    22    11    25    1
    23    12    13   ar
    24    12    18    1
    25    13    26    1
    26    14    16    2
    27    15    17    1
    28    16    17    1
    29    16    19    1
    30    18    27    1
    31    18    28    1
    32    18    29    1
    33    19    30    1
    34    19    31    1
    35    19    32    1
