@<TRIPOS>MOLECULE
IMPHY001935
 27 29 0 0 0
SMALL
GASTEIGER

@<TRIPOS>ATOM
      1 O           6.4144    1.8592    0.0000 O.3     1  UNL1       -0.5027
      2 O           4.6660    1.8246    0.0000 O.2     1  UNL1       -0.2865
      3 O           4.6660   -2.1754    0.0000 O.2     1  UNL1       -0.2866
      4 O           8.1962    0.8488    0.0000 O.3     1  UNL1       -0.5009
      5 O           8.1962   -1.1995    0.0000 O.3     1  UNL1       -0.5032
      6 C           5.5321    0.3246    0.0000 C.ar    1  UNL1        0.0783
      7 C           5.5321   -0.6754    0.0000 C.ar    1  UNL1        0.0403
      8 C           3.8000    0.3246    0.0000 C.ar    1  UNL1        0.0332
      9 C           3.8000   -0.6754    0.0000 C.ar    1  UNL1        0.0331
     10 C           4.6660    0.8246    0.0000 C.2     1  UNL1        0.1981
     11 C           4.6660   -1.1754    0.0000 C.2     1  UNL1        0.1947
     12 C           6.4260    0.8593    0.0000 C.ar    1  UNL1        0.1737
     13 C           6.4260   -1.2100    0.0000 C.ar    1  UNL1       -0.0048
     14 C           7.3321    0.3454    0.0000 C.ar    1  UNL1        0.2013
     15 C           7.3321   -0.6962    0.0000 C.ar    1  UNL1        0.1627
     16 C           2.9061    0.8593    0.0000 C.ar    1  UNL1       -0.0502
     17 C           2.9061   -1.2100    0.0000 C.ar    1  UNL1       -0.0502
     18 C           2.0000    0.3454    0.0000 C.ar    1  UNL1       -0.0610
     19 C           2.0000   -0.6962    0.0000 C.ar    1  UNL1       -0.0610
     20 H           6.4188   -1.8300    0.0000 H       1  UNL1        0.0662
     21 H           2.9132    1.4792    0.0000 H       1  UNL1        0.0625
     22 H           2.9132   -1.8300    0.0000 H       1  UNL1        0.0625
     23 H           1.4643    0.6575    0.0000 H       1  UNL1        0.0618
     24 H           1.4643   -1.0083    0.0000 H       1  UNL1        0.0618
     25 H           6.9478    2.1754    0.0000 H       1  UNL1        0.2923
     26 H           8.7343    0.5408    0.0000 H       1  UNL1        0.2924
     27 H           8.1938   -1.8195    0.0000 H       1  UNL1        0.2923
@<TRIPOS>BOND
     1     1    12    1
     2     1    25    1
     3     2    10    2
     4     3    11    2
     5     4    14    1
     6     4    26    1
     7     5    15    1
     8     5    27    1
     9     6     7   ar
    10     6    10    1
    11     6    12   ar
    12     7    11    1
    13     7    13   ar
    14     8     9   ar
    15     8    10    1
    16     8    16   ar
    17     9    11    1
    18     9    17   ar
    19    12    14   ar
    20    13    15   ar
    21    13    20    1
    22    14    15   ar
    23    16    18   ar
    24    16    21    1
    25    17    19   ar
    26    17    22    1
    27    18    19   ar
    28    18    23    1
    29    19    24    1
