@<TRIPOS>MOLECULE
IMPHY005903
 56 59 0 0 0
SMALL
GASTEIGER

@<TRIPOS>ATOM
      1 O          10.4419    1.1935    0.0000 O.3     1  UNL1       -0.4814
      2 O           6.9059    1.2213    0.0000 O.2     1  UNL1       -0.4534
      3 O           8.6658   -1.8133    0.0000 O.3     1  UNL1       -0.5058
      4 O           6.9174   -1.8479    0.0000 O.2     1  UNL1       -0.2866
      5 O           6.0075    2.7075    0.0000 O.3     1  UNL1       -0.5059
      6 O           2.5357    0.7208    0.0000 O.3     1  UNL1       -0.5033
      7 O           2.5434    2.7208    0.0000 O.3     1  UNL1       -0.5032
      8 C          10.4499    2.2351    0.0000 C.3     1  UNL1        0.1235
      9 C           8.6658    1.1867    0.0000 C.ar    1  UNL1        0.0597
     10 C           7.7998    0.6867    0.0000 C.ar    1  UNL1        0.1534
     11 C           9.5319    0.6867    0.0000 C.ar    1  UNL1        0.1359
     12 C           7.7998   -0.3133    0.0000 C.ar    1  UNL1        0.1063
     13 C           9.5478    2.7559    0.0000 C.2     1  UNL1       -0.0408
     14 C           8.6498    2.2282    0.0000 C.2     1  UNL1       -0.0478
     15 C           5.9998   -0.3342    0.0000 C.ar    1  UNL1        0.0467
     16 C          10.9532    3.0992    0.0000 C.3     1  UNL1       -0.0215
     17 C          11.4499    2.2312    0.0000 C.3     1  UNL1       -0.0215
     18 C           5.9998    0.7075    0.0000 C.ar    1  UNL1        0.1463
     19 C           6.9059   -0.8480    0.0000 C.ar    1  UNL1        0.2001
     20 C           8.6658   -0.8133    0.0000 C.ar    1  UNL1        0.1347
     21 C           9.5319   -0.3133    0.0000 C.ar    1  UNL1        0.0231
     22 C           5.1357   -0.8375    0.0000 C.3     1  UNL1       -0.0021
     23 C           5.1357    1.2108    0.0000 C.ar    1  UNL1        0.0627
     24 C           5.1396   -1.8375    0.0000 C.2     1  UNL1       -0.0807
     25 C           5.1396    2.2108    0.0000 C.ar    1  UNL1        0.1312
     26 C           4.2678    0.7142    0.0000 C.ar    1  UNL1       -0.0023
     27 C           4.2755   -2.3408    0.0000 C.2     1  UNL1       -0.0793
     28 C           3.4037    1.2175    0.0000 C.ar    1  UNL1        0.1591
     29 C           4.2755    2.7141    0.0000 C.ar    1  UNL1        0.0257
     30 C           3.4075    2.2175    0.0000 C.ar    1  UNL1        0.1618
     31 C           4.2793   -3.3408    0.0000 C.3     1  UNL1       -0.0440
     32 C           3.4075   -1.8442    0.0000 C.3     1  UNL1       -0.0440
     33 H           9.5454    3.3759    0.0000 H       1  UNL1        0.0611
     34 H           8.1093    2.5319    0.0000 H       1  UNL1        0.0624
     35 H          11.4890    2.7871    0.0000 H       1  UNL1        0.0271
     36 H          11.2653    3.6349    0.0000 H       1  UNL1        0.0271
     37 H          10.4175    3.4113    0.0000 H       1  UNL1        0.0271
     38 H          11.4475    1.6113    0.0000 H       1  UNL1        0.0271
     39 H          12.0699    2.2289    0.0000 H       1  UNL1        0.0271
     40 H          11.4523    2.8512    0.0000 H       1  UNL1        0.0271
     41 H          10.0688   -0.6233    0.0000 H       1  UNL1        0.0691
     42 H           4.9214   -0.2557    0.0000 H       1  UNL1        0.0358
     43 H           4.5256   -0.9475    0.0000 H       1  UNL1        0.0358
     44 H           5.6777   -2.1454    0.0000 H       1  UNL1        0.0575
     45 H           4.2654    0.0942    0.0000 H       1  UNL1        0.0663
     46 H           9.2028   -2.1233    0.0000 H       1  UNL1        0.2922
     47 H           4.2779    3.3341    0.0000 H       1  UNL1        0.0692
     48 H           3.6593   -3.3432    0.0000 H       1  UNL1        0.0274
     49 H           4.2817   -3.9608    0.0000 H       1  UNL1        0.0274
     50 H           4.8993   -3.3384    0.0000 H       1  UNL1        0.0274
     51 H           3.7155   -1.3060    0.0000 H       1  UNL1        0.0274
     52 H           2.8694   -1.5362    0.0000 H       1  UNL1        0.0274
     53 H           3.0996   -2.3823    0.0000 H       1  UNL1        0.0274
     54 H           6.0099    3.3275    0.0000 H       1  UNL1        0.2922
     55 H           2.0000    1.0329    0.0000 H       1  UNL1        0.2923
     56 H           2.5458    3.3408    0.0000 H       1  UNL1        0.2923
@<TRIPOS>BOND
     1     1     8    1
     2     1    11    1
     3     2    10   ar
     4     2    18   ar
     5     3    20    1
     6     3    46    1
     7     4    19    2
     8     5    25    1
     9     5    54    1
    10     6    28    1
    11     6    55    1
    12     7    30    1
    13     7    56    1
    14     8    13    1
    15     8    16    1
    16     8    17    1
    17     9    10   ar
    18     9    11   ar
    19     9    14    1
    20    10    12   ar
    21    11    21   ar
    22    12    19   ar
    23    12    20   ar
    24    13    14    2
    25    13    33    1
    26    14    34    1
    27    15    18   ar
    28    15    19   ar
    29    15    22    1
    30    16    35    1
    31    16    36    1
    32    16    37    1
    33    17    38    1
    34    17    39    1
    35    17    40    1
    36    18    23    1
    37    20    21   ar
    38    21    41    1
    39    22    24    1
    40    22    42    1
    41    22    43    1
    42    23    25   ar
    43    23    26   ar
    44    24    27    2
    45    24    44    1
    46    25    29   ar
    47    26    28   ar
    48    26    45    1
    49    27    31    1
    50    27    32    1
    51    28    30   ar
    52    29    30   ar
    53    29    47    1
    54    31    48    1
    55    31    49    1
    56    31    50    1
    57    32    51    1
    58    32    52    1
    59    32    53    1
