@<TRIPOS>MOLECULE
IMPHY012756
 53 56 0 0 0
SMALL
GASTEIGER

@<TRIPOS>ATOM
      1 O           5.1350   -1.6796    0.0000 O.3     1  UNL1       -0.3313
      2 O           6.8671   -1.6796    0.0000 O.3     1  UNL1       -0.4606
      3 O           5.1350   -4.6796    0.0000 O.3     1  UNL1       -0.3864
      4 O           3.4030   -3.6796    0.0000 O.3     1  UNL1       -0.3865
      5 O           6.8671   -3.6796    0.0000 O.3     1  UNL1       -0.3829
      6 O           2.5369   -2.1796    0.0000 O.3     1  UNL1       -0.3924
      7 O           8.6230    1.3829    0.0000 O.2     1  UNL1       -0.4507
      8 O           5.1208    1.3996    0.0000 O.3     1  UNL1       -0.5058
      9 O           7.7666    3.8863    0.0000 O.3     1  UNL1       -0.5007
     10 O           6.0308    2.8930    0.0000 O.2     1  UNL1       -0.2830
     11 O          12.0910    2.3696    0.0000 O.3     1  UNL1       -0.5033
     12 O          12.0987    4.3696    0.0000 O.3     1  UNL1       -0.5033
     13 C           5.1350   -3.6796    0.0000 C.3     1  UNL1        0.1152
     14 C           4.2690   -3.1796    0.0000 C.3     1  UNL1        0.1120
     15 C           6.0010   -3.1796    0.0000 C.3     1  UNL1        0.1454
     16 C           4.2690   -2.1796    0.0000 C.3     1  UNL1        0.1140
     17 C           6.0010   -2.1796    0.0000 C.3     1  UNL1        0.2308
     18 C           3.4030   -1.6796    0.0000 C.3     1  UNL1        0.0731
     19 C           6.8671   -0.6796    0.0000 C.ar    1  UNL1        0.1310
     20 C           7.7671   -0.1553    0.0000 C.ar    1  UNL1        0.0235
     21 C           5.9670   -0.1553    0.0000 C.ar    1  UNL1        0.0226
     22 C           7.7551    0.8863    0.0000 C.ar    1  UNL1        0.1465
     23 C           6.8910    1.3896    0.0000 C.ar    1  UNL1        0.1092
     24 C           5.9790    0.8863    0.0000 C.ar    1  UNL1        0.1348
     25 C           6.8948    2.3896    0.0000 C.ar    1  UNL1        0.2379
     26 C           8.6269    2.3829    0.0000 C.ar    1  UNL1        0.1807
     27 C           7.7628    2.8863    0.0000 C.ar    1  UNL1        0.2082
     28 C           9.4948    2.8796    0.0000 C.ar    1  UNL1        0.0247
     29 C          10.3589    2.3763    0.0000 C.ar    1  UNL1       -0.0057
     30 C           9.4987    3.8796    0.0000 C.ar    1  UNL1       -0.0473
     31 C          11.2269    2.8729    0.0000 C.ar    1  UNL1        0.1589
     32 C          10.3666    4.3762    0.0000 C.ar    1  UNL1       -0.0159
     33 C          11.2307    3.8729    0.0000 C.ar    1  UNL1        0.1583
     34 H           4.5981   -3.9896    0.0000 H       1  UNL1        0.0648
     35 H           4.2690   -3.7996    0.0000 H       1  UNL1        0.0647
     36 H           6.0010   -3.7996    0.0000 H       1  UNL1        0.0683
     37 H           4.2690   -1.5596    0.0000 H       1  UNL1        0.0647
     38 H           6.5380   -2.4896    0.0000 H       1  UNL1        0.1084
     39 H           3.8015   -1.2046    0.0000 H       1  UNL1        0.0584
     40 H           3.0044   -1.2046    0.0000 H       1  UNL1        0.0584
     41 H           4.5981   -4.9896    0.0000 H       1  UNL1        0.2100
     42 H           3.4030   -4.2996    0.0000 H       1  UNL1        0.2100
     43 H           6.8671   -4.2996    0.0000 H       1  UNL1        0.2102
     44 H           2.0000   -1.8696    0.0000 H       1  UNL1        0.2095
     45 H           8.3064   -0.4611    0.0000 H       1  UNL1        0.0691
     46 H           5.4277   -0.4611    0.0000 H       1  UNL1        0.0691
     47 H           4.5792    1.0979    0.0000 H       1  UNL1        0.2922
     48 H          10.3565    1.7563    0.0000 H       1  UNL1        0.0662
     49 H           8.9630    4.1916    0.0000 H       1  UNL1        0.0626
     50 H          10.3690    4.9962    0.0000 H       1  UNL1        0.0655
     51 H           7.2309    4.1983    0.0000 H       1  UNL1        0.2924
     52 H          12.6291    2.6775    0.0000 H       1  UNL1        0.2923
     53 H          12.1011    4.9896    0.0000 H       1  UNL1        0.2923
@<TRIPOS>BOND
     1     1    16    1
     2     1    17    1
     3    17     2    1
     4     2    19    1
     5    13     3    1
     6     3    41    1
     7    14     4    1
     8     4    42    1
     9    15     5    1
    10     5    43    1
    11     6    18    1
    12     6    44    1
    13     7    22   ar
    14     7    26   ar
    15     8    24    1
    16     8    47    1
    17     9    27    1
    18     9    51    1
    19    10    25    2
    20    11    31    1
    21    11    52    1
    22    12    33    1
    23    12    53    1
    24    13    14    1
    25    13    15    1
    26    13    34    1
    27    14    16    1
    28    14    35    1
    29    15    17    1
    30    15    36    1
    31    16    18    1
    32    16    37    1
    33    17    38    1
    34    18    39    1
    35    18    40    1
    36    19    20   ar
    37    19    21   ar
    38    20    22   ar
    39    20    45    1
    40    21    24   ar
    41    21    46    1
    42    22    23   ar
    43    23    24   ar
    44    23    25   ar
    45    25    27   ar
    46    26    27   ar
    47    26    28    1
    48    28    29   ar
    49    28    30   ar
    50    29    31   ar
    51    29    48    1
    52    30    32   ar
    53    30    49    1
    54    31    33   ar
    55    32    33   ar
    56    32    50    1
