@<TRIPOS>MOLECULE
IMPHY001925
 28 28 0 0 0
SMALL
GASTEIGER

@<TRIPOS>ATOM
      1 O           3.0000   -0.3170    0.0000 O.3     1  UNL1       -0.3573
      2 O           5.3660    1.0490    0.0000 O.2     1  UNL1       -0.2936
      3 C           3.0000    0.6830    0.0000 C.3     1  UNL1        0.0979
      4 C           3.8660    0.1830    0.0000 C.3     1  UNL1        0.1462
      5 C           4.8660    0.1830    0.0000 C.2     1  UNL1        0.1739
      6 C           5.3660   -0.6830    0.0000 C.3     1  UNL1        0.0438
      7 C           2.0000    0.6830    0.0000 C.3     1  UNL1       -0.0332
      8 C           3.5000    1.5490    0.0000 C.3     1  UNL1       -0.0332
      9 C           6.2320   -0.1830    0.0000 C.3     1  UNL1       -0.0495
     10 C           4.5000   -1.1830    0.0000 C.3     1  UNL1       -0.0495
     11 C           5.8660   -1.5490    0.0000 C.2     1  UNL1       -0.0784
     12 C           6.8660   -1.5490    0.0000 C.2     1  UNL1       -0.1017
     13 H           4.0860   -0.6380    0.0000 H       1  UNL1        0.0705
     14 H           2.0000    1.3030    0.0000 H       1  UNL1        0.0258
     15 H           1.3800    0.6830    0.0000 H       1  UNL1        0.0258
     16 H           2.0000    0.0630    0.0000 H       1  UNL1        0.0258
     17 H           4.0369    1.2390    0.0000 H       1  UNL1        0.0258
     18 H           3.8100    2.0860    0.0000 H       1  UNL1        0.0258
     19 H           2.9631    1.8590    0.0000 H       1  UNL1        0.0258
     20 H           6.5420   -0.7199    0.0000 H       1  UNL1        0.0242
     21 H           6.7690    0.1270    0.0000 H       1  UNL1        0.0242
     22 H           5.9220    0.3539    0.0000 H       1  UNL1        0.0242
     23 H           4.1900   -0.6461    0.0000 H       1  UNL1        0.0242
     24 H           3.9631   -1.4930    0.0000 H       1  UNL1        0.0242
     25 H           4.8100   -1.7200    0.0000 H       1  UNL1        0.0242
     26 H           5.5560   -2.0860    0.0000 H       1  UNL1        0.0576
     27 H           7.1760   -2.0860    0.0000 H       1  UNL1        0.0532
     28 H           7.1760   -1.0121    0.0000 H       1  UNL1        0.0532
@<TRIPOS>BOND
     1     1     3    1
     2     1     4    1
     3     2     5    2
     4     3     4    1
     5     3     7    1
     6     3     8    1
     7     4     5    1
     8     4    13    1
     9     5     6    1
    10     6     9    1
    11     6    10    1
    12     6    11    1
    13     7    14    1
    14     7    15    1
    15     7    16    1
    16     8    17    1
    17     8    18    1
    18     8    19    1
    19     9    20    1
    20     9    21    1
    21     9    22    1
    22    10    23    1
    23    10    24    1
    24    10    25    1
    25    11    12    2
    26    11    26    1
    27    12    27    1
    28    12    28    1
