@<TRIPOS>MOLECULE
IMPHY014158
 38 41 0 0 0
SMALL
GASTEIGER

@<TRIPOS>ATOM
      1 O           9.3816   -0.0664    0.0000 O.3     1  UNL1       -0.4813
      2 O           2.4170   -0.0788    0.0000 O.3     1  UNL1       -0.5067
      3 N           5.9065   -0.9830    0.0000 N.ar    1  UNL1       -0.3535
      4 C           9.7112   -1.0546    0.0000 C.3     1  UNL1        0.1235
      5 C           6.7123   -0.4008    0.0000 C.ar    1  UNL1        0.0582
      6 C           7.6904   -0.6087    0.0000 C.ar    1  UNL1        0.0407
      7 C           6.4033    0.5502    0.0000 C.ar    1  UNL1        0.0085
      8 C           8.3596    0.1344    0.0000 C.ar    1  UNL1        0.1337
      9 C           5.4092    0.5477    0.0000 C.ar    1  UNL1        0.0077
     10 C           8.0505    1.0855    0.0000 C.ar    1  UNL1       -0.0075
     11 C           5.1028   -0.3980    0.0000 C.ar    1  UNL1        0.0510
     12 C           9.0142   -1.8286    0.0000 C.2     1  UNL1       -0.0408
     13 C           7.0724    1.2934    0.0000 C.ar    1  UNL1       -0.0456
     14 C           7.9970   -1.6042    0.0000 C.2     1  UNL1       -0.0493
     15 C          10.4569   -1.7208    0.0000 C.3     1  UNL1       -0.0215
     16 C          10.6610   -0.7419    0.0000 C.3     1  UNL1       -0.0215
     17 C           4.7276    1.3272    0.0000 C.ar    1  UNL1       -0.0486
     18 C           8.7197    1.8286    0.0000 C.3     1  UNL1       -0.0362
     19 C           4.0936   -0.6298    0.0000 C.ar    1  UNL1        0.0038
     20 C           3.7133    1.1188    0.0000 C.ar    1  UNL1       -0.0195
     21 C           3.3942    0.1338    0.0000 C.ar    1  UNL1        0.1188
     22 H           9.2035   -2.4190    0.0000 H       1  UNL1        0.0611
     23 H           5.9055   -1.6030    0.0000 H       1  UNL1        0.1659
     24 H           6.8808    1.8830    0.0000 H       1  UNL1        0.0628
     25 H           7.5768   -2.0601    0.0000 H       1  UNL1        0.0623
     26 H          10.0438   -2.1832    0.0000 H       1  UNL1        0.0271
     27 H          10.9192   -2.1339    0.0000 H       1  UNL1        0.0271
     28 H          10.8700   -1.2585    0.0000 H       1  UNL1        0.0271
     29 H          10.8549   -1.3308    0.0000 H       1  UNL1        0.0271
     30 H          11.2499   -0.5480    0.0000 H       1  UNL1        0.0271
     31 H          10.4671   -0.1530    0.0000 H       1  UNL1        0.0271
     32 H           4.9255    1.9147    0.0000 H       1  UNL1        0.0625
     33 H           9.1804    1.4138    0.0000 H       1  UNL1        0.0279
     34 H           9.1345    2.2894    0.0000 H       1  UNL1        0.0279
     35 H           8.2589    2.2435    0.0000 H       1  UNL1        0.0279
     36 H           3.9094   -1.2218    0.0000 H       1  UNL1        0.0675
     37 H           3.2998    1.5808    0.0000 H       1  UNL1        0.0654
     38 H           2.0000    0.3800    0.0000 H       1  UNL1        0.2921
@<TRIPOS>BOND
     1     1     4    1
     2     1     8    1
     3     2    21    1
     4     2    38    1
     5     3     5   ar
     6     3    11   ar
     7     3    23    1
     8     4    12    1
     9     4    15    1
    10     4    16    1
    11     5     6   ar
    12     5     7   ar
    13     6     8   ar
    14     6    14    1
    15     7     9   ar
    16     7    13   ar
    17     8    10   ar
    18     9    11   ar
    19     9    17   ar
    20    10    13   ar
    21    10    18    1
    22    11    19   ar
    23    12    14    2
    24    12    22    1
    25    13    24    1
    26    14    25    1
    27    15    26    1
    28    15    27    1
    29    15    28    1
    30    16    29    1
    31    16    30    1
    32    16    31    1
    33    17    20   ar
    34    17    32    1
    35    18    33    1
    36    18    34    1
    37    18    35    1
    38    19    21   ar
    39    19    36    1
    40    20    21   ar
    41    20    37    1
