@<TRIPOS>MOLECULE
IMPHY010673
 58 61 0 0 0
SMALL
GASTEIGER

@<TRIPOS>ATOM
      1 O           5.2476    1.7907    0.0000 O.3     1  UNL1       -0.4599
      2 O           6.0010   -1.0456    0.0000 O.3     1  UNL1       -0.3443
      3 O           4.2690   -1.0456    0.0000 O.3     1  UNL1       -0.3405
      4 O           3.6777    2.6218    0.0000 O.2     1  UNL1       -0.2505
      5 O           9.4361    0.6784    0.0000 O.2     1  UNL1       -0.2876
      6 O           6.0010   -3.0456    0.0000 O.3     1  UNL1       -0.3841
      7 O           4.2690   -4.0456    0.0000 O.3     1  UNL1       -0.3864
      8 O           2.5369   -3.0456    0.0000 O.3     1  UNL1       -0.3865
      9 O           2.5369   -0.0455    0.0000 O.3     1  UNL1       -0.3924
     10 C           6.2155    3.0795    0.0000 C.3     1  UNL1        0.0100
     11 C           6.1988    2.0796    0.0000 C.3     1  UNL1        0.1172
     12 C           6.9701    1.4432    0.0000 C.3     1  UNL1        0.0486
     13 C           5.2745    3.4000    0.0000 C.3     1  UNL1        0.0598
     14 C           7.0076    3.6898    0.0000 C.3     1  UNL1       -0.0424
     15 C           7.9486    1.6494    0.0000 C.2     1  UNL1        0.0089
     16 C           7.9787    3.4511    0.0000 C.3     1  UNL1       -0.0309
     17 C           6.8671    0.4545    0.0000 C.2     1  UNL1       -0.0295
     18 C           8.3975    2.5430    0.0000 C.2     1  UNL1       -0.0651
     19 C           4.6775    2.6051    0.0000 C.2     1  UNL1        0.3106
     20 C           4.9797    4.3556    0.0000 C.3     1  UNL1       -0.0519
     21 C           8.4419    0.7864    0.0000 C.2     1  UNL1        0.1828
     22 C           7.7748    0.0493    0.0000 C.2     1  UNL1       -0.0125
     23 C           6.0010   -0.0455    0.0000 C.3     1  UNL1        0.0729
     24 C           9.3973    2.5263    0.0000 C.3     1  UNL1       -0.0431
     25 C           5.1350   -1.5456    0.0000 C.3     1  UNL1        0.1883
     26 C           5.1350   -2.5456    0.0000 C.3     1  UNL1        0.1341
     27 C           4.2690   -3.0456    0.0000 C.3     1  UNL1        0.1141
     28 C           3.4030   -2.5456    0.0000 C.3     1  UNL1        0.1119
     29 C           3.4030   -1.5456    0.0000 C.3     1  UNL1        0.1130
     30 C           2.5369   -1.0456    0.0000 C.3     1  UNL1        0.0730
     31 H           6.0766    3.9181    0.0000 H       1  UNL1        0.0345
     32 H           6.0320    1.2462    0.0000 H       1  UNL1        0.0746
     33 H           6.1835    1.1212    0.0000 H       1  UNL1        0.0432
     34 H           5.7192    3.8320    0.0000 H       1  UNL1        0.0415
     35 H           7.2859    4.2439    0.0000 H       1  UNL1        0.0272
     36 H           6.5294    4.0844    0.0000 H       1  UNL1        0.0272
     37 H           8.5854    3.5789    0.0000 H       1  UNL1        0.0310
     38 H           7.9890    4.0710    0.0000 H       1  UNL1        0.0310
     39 H           5.5722    4.5383    0.0000 H       1  UNL1        0.0238
     40 H           4.7970    4.9480    0.0000 H       1  UNL1        0.0238
     41 H           4.3873    4.1728    0.0000 H       1  UNL1        0.0238
     42 H           7.9027   -0.5573    0.0000 H       1  UNL1        0.0656
     43 H           5.7890    0.5371    0.0000 H       1  UNL1        0.0608
     44 H           5.3905   -0.1532    0.0000 H       1  UNL1        0.0608
     45 H           5.1350   -0.9255    0.0000 H       1  UNL1        0.0938
     46 H           9.3870    1.9064    0.0000 H       1  UNL1        0.0275
     47 H          10.0173    2.5160    0.0000 H       1  UNL1        0.0275
     48 H           9.4077    3.1462    0.0000 H       1  UNL1        0.0275
     49 H           5.1350   -3.1655    0.0000 H       1  UNL1        0.0671
     50 H           3.7320   -3.3556    0.0000 H       1  UNL1        0.0648
     51 H           2.8660   -2.2356    0.0000 H       1  UNL1        0.0647
     52 H           3.4030   -0.9255    0.0000 H       1  UNL1        0.0647
     53 H           1.9264   -0.9379    0.0000 H       1  UNL1        0.0584
     54 H           2.3249   -1.6282    0.0000 H       1  UNL1        0.0584
     55 H           6.5380   -2.7356    0.0000 H       1  UNL1        0.2101
     56 H           3.7320   -4.3556    0.0000 H       1  UNL1        0.2100
     57 H           2.0000   -2.7356    0.0000 H       1  UNL1        0.2100
     58 H           2.0000    0.2645    0.0000 H       1  UNL1        0.2095
@<TRIPOS>BOND
     1     1    11    1
     2     1    19    1
     3     2    23    1
     4    25     2    1
     5     3    25    1
     6     3    29    1
     7     4    19    2
     8     5    21    2
     9    26     6    1
    10     6    55    1
    11    27     7    1
    12     7    56    1
    13    28     8    1
    14     8    57    1
    15     9    30    1
    16     9    58    1
    17    10    11    1
    18    10    13    1
    19    10    14    1
    20    10    31    1
    21    11    12    1
    22    11    32    1
    23    12    15    1
    24    12    17    1
    25    12    33    1
    26    13    19    1
    27    13    20    1
    28    13    34    1
    29    14    16    1
    30    14    35    1
    31    14    36    1
    32    15    18    2
    33    15    21    1
    34    16    18    1
    35    16    37    1
    36    16    38    1
    37    17    22    2
    38    17    23    1
    39    18    24    1
    40    20    39    1
    41    20    40    1
    42    20    41    1
    43    21    22    1
    44    22    42    1
    45    23    43    1
    46    23    44    1
    47    24    46    1
    48    24    47    1
    49    24    48    1
    50    25    26    1
    51    25    45    1
    52    26    27    1
    53    26    49    1
    54    27    28    1
    55    27    50    1
    56    28    29    1
    57    28    51    1
    58    29    30    1
    59    29    52    1
    60    30    53    1
    61    30    54    1
