@<TRIPOS>MOLECULE
IMPHY014117
 28 29 0 0 0
SMALL
GASTEIGER

@<TRIPOS>ATOM
      1 O           3.2320   -1.4330    0.0000 O.3     1  UNL1       -0.3539
      2 O           2.0000   -0.5670    0.0000 O.2     1  UNL1       -0.2942
      3 C           3.7320   -0.5670    0.0000 C.3     1  UNL1        0.1559
      4 C           4.2320   -1.4330    0.0000 C.3     1  UNL1        0.1010
      5 C           4.5981   -0.0670    0.0000 C.3     1  UNL1       -0.0138
      6 C           2.8660   -0.0670    0.0000 C.2     1  UNL1        0.1679
      7 C           4.5981    0.9330    0.0000 C.3     1  UNL1       -0.0470
      8 C           3.7320    1.4330    0.0000 C.3     1  UNL1       -0.0370
      9 C           2.8660    0.9330    0.0000 C.3     1  UNL1        0.0114
     10 C           4.2320   -2.4330    0.0000 C.3     1  UNL1       -0.0329
     11 C           5.0981   -0.9330    0.0000 C.3     1  UNL1       -0.0329
     12 C           3.7320    2.4330    0.0000 C.3     1  UNL1       -0.0620
     13 H           4.8101   -0.6496    0.0000 H       1  UNL1        0.0298
     14 H           5.2087    0.0407    0.0000 H       1  UNL1        0.0298
     15 H           5.2087    0.8254    0.0000 H       1  UNL1        0.0269
     16 H           4.8101    1.5156    0.0000 H       1  UNL1        0.0269
     17 H           4.2690    1.7430    0.0000 H       1  UNL1        0.0302
     18 H           2.6540    1.5156    0.0000 H       1  UNL1        0.0345
     19 H           2.2554    0.8254    0.0000 H       1  UNL1        0.0345
     20 H           3.6120   -2.4330    0.0000 H       1  UNL1        0.0258
     21 H           4.2320   -3.0530    0.0000 H       1  UNL1        0.0258
     22 H           4.8520   -2.4330    0.0000 H       1  UNL1        0.0258
     23 H           5.4081   -1.4700    0.0000 H       1  UNL1        0.0258
     24 H           5.6350   -0.6230    0.0000 H       1  UNL1        0.0258
     25 H           4.7881   -0.3961    0.0000 H       1  UNL1        0.0258
     26 H           4.3520    2.4330    0.0000 H       1  UNL1        0.0233
     27 H           3.7320    3.0530    0.0000 H       1  UNL1        0.0233
     28 H           3.1120    2.4330    0.0000 H       1  UNL1        0.0233
@<TRIPOS>BOND
     1     3     1    1
     2     1     4    1
     3     2     6    2
     4     3     4    1
     5     3     5    1
     6     3     6    1
     7     4    10    1
     8     4    11    1
     9     5     7    1
    10     5    13    1
    11     5    14    1
    12     6     9    1
    13     7     8    1
    14     7    15    1
    15     7    16    1
    16     8     9    1
    17     8    12    1
    18     8    17    1
    19     9    18    1
    20     9    19    1
    21    10    20    1
    22    10    21    1
    23    10    22    1
    24    11    23    1
    25    11    24    1
    26    11    25    1
    27    12    26    1
    28    12    27    1
    29    12    28    1
