@<TRIPOS>MOLECULE
IMPHY004395
 42 44 0 0 0
SMALL
GASTEIGER

@<TRIPOS>ATOM
      1 O           7.2583   -1.5137    0.0000 O.2     1  UNL1       -0.4545
      2 O           3.7282   -1.5379    0.0000 O.3     1  UNL1       -0.5064
      3 O           7.2583    1.4863    0.0000 O.2     1  UNL1       -0.2870
      4 O          11.5884   -3.0137    0.0000 O.3     1  UNL1       -0.5068
      5 C           4.5923    0.0071    0.0000 C.ar    1  UNL1       -0.0013
      6 C           6.3923   -0.0137    0.0000 C.ar    1  UNL1        0.0645
      7 C           6.3923   -1.0137    0.0000 C.ar    1  UNL1        0.1427
      8 C           3.7282    0.5104    0.0000 C.3     1  UNL1       -0.0058
      9 C           5.4983    0.5209    0.0000 C.ar    1  UNL1       -0.0404
     10 C           4.5923   -1.0346    0.0000 C.ar    1  UNL1        0.1238
     11 C           5.4983   -1.5484    0.0000 C.ar    1  UNL1        0.0231
     12 C           8.1243   -1.0137    0.0000 C.ar    1  UNL1        0.1392
     13 C           7.2583    0.4863    0.0000 C.ar    1  UNL1        0.1931
     14 C           8.1243   -0.0137    0.0000 C.ar    1  UNL1        0.0287
     15 C           3.7320    1.5104    0.0000 C.2     1  UNL1       -0.0809
     16 C           8.9904   -1.5137    0.0000 C.ar    1  UNL1        0.0176
     17 C           2.8680    2.0137    0.0000 C.2     1  UNL1       -0.0793
     18 C           8.9904   -2.5137    0.0000 C.ar    1  UNL1       -0.0476
     19 C           9.8564   -1.0137    0.0000 C.ar    1  UNL1       -0.0476
     20 C           2.8718    3.0137    0.0000 C.3     1  UNL1       -0.0440
     21 C           2.0000    1.5171    0.0000 C.3     1  UNL1       -0.0440
     22 C           9.8564   -3.0137    0.0000 C.ar    1  UNL1       -0.0195
     23 C          10.7224   -1.5137    0.0000 C.ar    1  UNL1       -0.0195
     24 C          10.7224   -2.5137    0.0000 C.ar    1  UNL1        0.1169
     25 H           3.1180    0.6204    0.0000 H       1  UNL1        0.0357
     26 H           3.5139   -0.0714    0.0000 H       1  UNL1        0.0357
     27 H           5.5055    1.1409    0.0000 H       1  UNL1        0.0630
     28 H           5.5055   -2.1684    0.0000 H       1  UNL1        0.0691
     29 H           8.6613    0.2963    0.0000 H       1  UNL1        0.0693
     30 H           4.2702    1.8183    0.0000 H       1  UNL1        0.0575
     31 H           8.4534   -2.8237    0.0000 H       1  UNL1        0.0626
     32 H           9.8564   -0.3937    0.0000 H       1  UNL1        0.0626
     33 H           1.6921    2.0552    0.0000 H       1  UNL1        0.0274
     34 H           1.4619    1.2092    0.0000 H       1  UNL1        0.0274
     35 H           2.3079    0.9790    0.0000 H       1  UNL1        0.0274
     36 H           3.4918    3.0113    0.0000 H       1  UNL1        0.0274
     37 H           2.8742    3.6337    0.0000 H       1  UNL1        0.0274
     38 H           2.2518    3.0161    0.0000 H       1  UNL1        0.0274
     39 H           3.7306   -2.1579    0.0000 H       1  UNL1        0.2921
     40 H           9.8564   -3.6337    0.0000 H       1  UNL1        0.0654
     41 H          11.2593   -1.2037    0.0000 H       1  UNL1        0.0654
     42 H          12.1254   -2.7037    0.0000 H       1  UNL1        0.2921
@<TRIPOS>BOND
     1     1     7   ar
     2     1    12   ar
     3     2    10    1
     4     2    39    1
     5     3    13    2
     6     4    24    1
     7     4    42    1
     8     5     8    1
     9     5     9   ar
    10     5    10   ar
    11     6     7   ar
    12     6     9   ar
    13     6    13   ar
    14     7    11   ar
    15     8    15    1
    16     8    25    1
    17     8    26    1
    18     9    27    1
    19    10    11   ar
    20    11    28    1
    21    12    14   ar
    22    12    16    1
    23    13    14   ar
    24    14    29    1
    25    15    17    2
    26    15    30    1
    27    16    18   ar
    28    16    19   ar
    29    17    20    1
    30    17    21    1
    31    18    22   ar
    32    18    31    1
    33    19    23   ar
    34    19    32    1
    35    20    36    1
    36    20    37    1
    37    20    38    1
    38    21    33    1
    39    21    34    1
    40    21    35    1
    41    22    24   ar
    42    22    40    1
    43    23    24   ar
    44    23    41    1
