@<TRIPOS>MOLECULE
IMPHY014280
 40 42 0 0 0
SMALL
GASTEIGER

@<TRIPOS>ATOM
      1 O           6.4783   -1.0720    0.0000 O.3     1  UNL1       -0.4608
      2 O           3.8000    1.2327    0.0000 O.3     1  UNL1       -0.3837
      3 O           8.0619   -0.2673    0.0000 O.2     1  UNL1       -0.2505
      4 C           3.8000   -0.7673    0.0000 C.3     1  UNL1        0.0039
      5 C           3.8000    0.2327    0.0000 C.3     1  UNL1        0.0926
      6 C           5.5321    0.2327    0.0000 C.3     1  UNL1        0.0117
      7 C           4.6660   -1.2673    0.0000 C.3     1  UNL1       -0.0071
      8 C           5.5321   -0.7673    0.0000 C.3     1  UNL1        0.1073
      9 C           4.6660    0.7327    0.0000 C.3     1  UNL1       -0.0127
     10 C           2.9061   -1.3020    0.0000 C.3     1  UNL1       -0.0443
     11 C           6.4783    0.5374    0.0000 C.3     1  UNL1        0.0599
     12 C           2.9061    0.7674    0.0000 C.2     1  UNL1       -0.0450
     13 C           3.8000   -1.7673    0.0000 C.3     1  UNL1       -0.0565
     14 C           2.0000   -0.7881    0.0000 C.3     1  UNL1       -0.0487
     15 C           2.0000    0.2535    0.0000 C.3     1  UNL1       -0.0293
     16 C           7.0619   -0.2673    0.0000 C.2     1  UNL1        0.3106
     17 C           6.7889    1.4880    0.0000 C.3     1  UNL1       -0.0519
     18 C           2.9176    1.7673    0.0000 C.2     1  UNL1       -0.0967
     19 H           5.6220    1.0779    0.0000 H       1  UNL1        0.0345
     20 H           4.2675   -1.7422    0.0000 H       1  UNL1        0.0307
     21 H           5.0646   -1.7422    0.0000 H       1  UNL1        0.0307
     22 H           5.6220   -1.6125    0.0000 H       1  UNL1        0.0737
     23 H           5.0646    1.2076    0.0000 H       1  UNL1        0.0300
     24 H           4.2675    1.2076    0.0000 H       1  UNL1        0.0300
     25 H           2.5124   -1.7810    0.0000 H       1  UNL1        0.0272
     26 H           3.3107   -1.7718    0.0000 H       1  UNL1        0.0272
     27 H           7.0908    0.6336    0.0000 H       1  UNL1        0.0415
     28 H           3.1800   -1.7673    0.0000 H       1  UNL1        0.0236
     29 H           3.8000   -2.3873    0.0000 H       1  UNL1        0.0236
     30 H           4.4200   -1.7673    0.0000 H       1  UNL1        0.0236
     31 H           1.3891   -0.6820    0.0000 H       1  UNL1        0.0268
     32 H           1.7909   -1.3718    0.0000 H       1  UNL1        0.0268
     33 H           1.7909    0.8372    0.0000 H       1  UNL1        0.0311
     34 H           1.3891    0.1474    0.0000 H       1  UNL1        0.0311
     35 H           4.3369    1.5427    0.0000 H       1  UNL1        0.2106
     36 H           7.3783    1.2953    0.0000 H       1  UNL1        0.0238
     37 H           6.9816    2.0773    0.0000 H       1  UNL1        0.0238
     38 H           6.1996    1.6806    0.0000 H       1  UNL1        0.0238
     39 H           3.4581    2.0711    0.0000 H       1  UNL1        0.0535
     40 H           2.3843    2.0835    0.0000 H       1  UNL1        0.0535
@<TRIPOS>BOND
     1     1     8    1
     2     1    16    1
     3     5     2    1
     4     2    35    1
     5     3    16    2
     6     4     5    1
     7     4     7    1
     8     4    10    1
     9     4    13    1
    10     5     9    1
    11     5    12    1
    12     6     8    1
    13     6     9    1
    14     6    11    1
    15     6    19    1
    16     7     8    1
    17     7    20    1
    18     7    21    1
    19     8    22    1
    20     9    23    1
    21     9    24    1
    22    10    14    1
    23    10    25    1
    24    10    26    1
    25    11    16    1
    26    11    17    1
    27    11    27    1
    28    12    15    1
    29    12    18    2
    30    13    28    1
    31    13    29    1
    32    13    30    1
    33    14    15    1
    34    14    31    1
    35    14    32    1
    36    15    33    1
    37    15    34    1
    38    17    36    1
    39    17    37    1
    40    17    38    1
    41    18    39    1
    42    18    40    1
