@<TRIPOS>MOLECULE
IMPHY000409
 218 229 0 0 0
SMALL
GASTEIGER

@<TRIPOS>ATOM
      1 O          11.1972   -5.7500    0.0000 O.3     1  UNL1       -0.3302
      2 O          12.0632  -10.2500    0.0000 O.3     1  UNL1       -0.3302
      3 O          18.1254   -8.7500    0.0000 O.3     1  UNL1       -0.3302
      4 O          12.0632   -7.2500    0.0000 O.3     1  UNL1       -0.4570
      5 O          13.7953  -10.2500    0.0000 O.3     1  UNL1       -0.4570
      6 O           6.8671    2.7500    0.0000 O.3     1  UNL1       -0.3302
      7 O          16.3933   -8.7500    0.0000 O.3     1  UNL1       -0.4515
      8 O          13.7953   -4.2500    0.0000 O.3     1  UNL1       -0.3864
      9 O          12.0632   -3.2500    0.0000 O.3     1  UNL1       -0.3864
     10 O          12.0632  -13.2500    0.0000 O.3     1  UNL1       -0.3864
     11 O          10.3312  -12.2500    0.0000 O.3     1  UNL1       -0.3864
     12 O          13.7953   -6.2500    0.0000 O.3     1  UNL1       -0.3829
     13 O          13.7953  -12.2500    0.0000 O.3     1  UNL1       -0.3829
     14 O          19.8574  -10.7500    0.0000 O.3     1  UNL1       -0.3864
     15 O           5.1350   -6.2500    0.0000 O.3     1  UNL1       -0.3313
     16 O          18.1254  -11.7500    0.0000 O.3     1  UNL1       -0.3864
     17 O           6.8671   10.7500    0.0000 O.3     1  UNL1       -0.3313
     18 O          16.3933  -10.7500    0.0000 O.3     1  UNL1       -0.3829
     19 O           4.2690    3.2500    0.0000 O.3     1  UNL1       -0.3864
     20 O           4.2690    1.2500    0.0000 O.3     1  UNL1       -0.3864
     21 O          10.3312   -3.2500    0.0000 O.3     1  UNL1       -0.4589
     22 O           9.4651  -10.7500    0.0000 O.3     1  UNL1       -0.4589
     23 O           7.7331    1.2500    0.0000 O.3     1  UNL1       -0.4608
     24 O           6.0010    0.2500    0.0000 O.3     1  UNL1       -0.3829
     25 O          19.8574   -7.7500    0.0000 O.3     1  UNL1       -0.4616
     26 O           3.4030   -4.2500    0.0000 O.3     1  UNL1       -0.3865
     27 O           5.1350   -3.2500    0.0000 O.3     1  UNL1       -0.3864
     28 O           7.7331   13.2500    0.0000 O.3     1  UNL1       -0.3865
     29 O           9.4651   12.2500    0.0000 O.3     1  UNL1       -0.3864
     30 O           6.8671   -6.2500    0.0000 O.3     1  UNL1       -0.4608
     31 O           7.7331    9.2500    0.0000 O.3     1  UNL1       -0.4608
     32 O           6.8671   -4.2500    0.0000 O.3     1  UNL1       -0.3829
     33 O           9.4651   10.2500    0.0000 O.3     1  UNL1       -0.3829
     34 O           5.1350    4.7500    0.0000 O.3     1  UNL1       -0.4589
     35 O          15.5273   -6.2500    0.0000 O.2     1  UNL1       -0.1997
     36 O          12.0632   -9.2500    0.0000 O.3     1  UNL1       -0.5009
     37 O           2.5369   -5.7500    0.0000 O.3     1  UNL1       -0.3924
     38 O           6.0010   13.2500    0.0000 O.3     1  UNL1       -0.3924
     39 O           9.4651   -1.7500    0.0000 O.2     1  UNL1       -0.2456
     40 O           8.5991   -9.2500    0.0000 O.2     1  UNL1       -0.2456
     41 O          20.7235   -6.2500    0.0000 O.2     1  UNL1       -0.2502
     42 O          19.0296   -6.2531    0.0000 O.3     1  UNL1       -0.5057
     43 O           6.0010    6.2500    0.0000 O.2     1  UNL1       -0.2456
     44 O          17.2715   -3.1808    0.0000 O.3     1  UNL1       -0.5063
     45 O          22.4555   -6.2500    0.0000 O.3     1  UNL1       -0.4802
     46 O          23.3215   -7.7500    0.0000 O.2     1  UNL1       -0.2504
     47 C          12.9292   -4.7500    0.0000 C.3     1  UNL1        0.1152
     48 C          12.0632   -4.2500    0.0000 C.3     1  UNL1        0.1130
     49 C          12.0632  -12.2500    0.0000 C.3     1  UNL1        0.1152
     50 C          11.1972  -11.7500    0.0000 C.3     1  UNL1        0.1130
     51 C          12.9292   -5.7500    0.0000 C.3     1  UNL1        0.1454
     52 C          11.1972   -4.7500    0.0000 C.3     1  UNL1        0.1250
     53 C          12.9292  -11.7500    0.0000 C.3     1  UNL1        0.1454
     54 C          11.1972  -10.7500    0.0000 C.3     1  UNL1        0.1250
     55 C          18.9914  -10.2500    0.0000 C.3     1  UNL1        0.1130
     56 C          18.1254  -10.7500    0.0000 C.3     1  UNL1        0.1152
     57 C          12.0632   -6.2500    0.0000 C.3     1  UNL1        0.2310
     58 C          18.9914   -9.2500    0.0000 C.3     1  UNL1        0.1250
     59 C          17.2594  -10.2500    0.0000 C.3     1  UNL1        0.1454
     60 C          12.9292  -10.7500    0.0000 C.3     1  UNL1        0.2310
     61 C          17.2594   -9.2500    0.0000 C.3     1  UNL1        0.2313
     62 C           5.1350    2.7500    0.0000 C.3     1  UNL1        0.1130
     63 C           5.1350    1.7500    0.0000 C.3     1  UNL1        0.1152
     64 C           6.0010    3.2500    0.0000 C.3     1  UNL1        0.1250
     65 C           6.0010    1.2500    0.0000 C.3     1  UNL1        0.1454
     66 C          10.3312   -4.2500    0.0000 C.3     1  UNL1        0.1215
     67 C          10.3312  -10.2500    0.0000 C.3     1  UNL1        0.1215
     68 C           4.2690   -4.7500    0.0000 C.3     1  UNL1        0.1120
     69 C           5.1350   -4.2500    0.0000 C.3     1  UNL1        0.1152
     70 C           7.7331   12.2500    0.0000 C.3     1  UNL1        0.1120
     71 C           8.5991   11.7500    0.0000 C.3     1  UNL1        0.1152
     72 C           6.8671    1.7500    0.0000 C.3     1  UNL1        0.2308
     73 C          19.8574   -8.7500    0.0000 C.3     1  UNL1        0.1212
     74 C           4.2690   -5.7500    0.0000 C.3     1  UNL1        0.1140
     75 C           6.8671   11.7500    0.0000 C.3     1  UNL1        0.1140
     76 C           6.0010   -4.7500    0.0000 C.3     1  UNL1        0.1454
     77 C           8.5991   10.7500    0.0000 C.3     1  UNL1        0.1454
     78 C           6.0010   -5.7500    0.0000 C.3     1  UNL1        0.2308
     79 C           7.7331   10.2500    0.0000 C.3     1  UNL1        0.2308
     80 C          12.9292   -7.7500    0.0000 C.ar    1  UNL1        0.1697
     81 C          13.7953   -9.2500    0.0000 C.ar    1  UNL1        0.1697
     82 C           6.0010    4.2500    0.0000 C.3     1  UNL1        0.1215
     83 C          12.9292   -8.7500    0.0000 C.ar    1  UNL1        0.2013
     84 C          14.6613   -7.7500    0.0000 C.ar    1  UNL1        0.0899
     85 C          16.3933   -7.7500    0.0000 C.ar    1  UNL1        0.2288
     86 C           3.4030   -6.2500    0.0000 C.3     1  UNL1        0.0731
     87 C           6.0010   12.2500    0.0000 C.3     1  UNL1        0.0731
     88 C          13.7953   -7.2500    0.0000 C.ar    1  UNL1        0.0003
     89 C          14.6613   -8.7500    0.0000 C.ar    1  UNL1        0.0003
     90 C          15.5273   -7.2500    0.0000 C.ar    1  UNL1        0.4047
     91 C          17.2594   -7.2500    0.0000 C.ar    1  UNL1        0.0093
     92 C          17.2594   -6.2500    0.0000 C.ar    1  UNL1        0.1241
     93 C           7.7331    0.2500    0.0000 C.ar    1  UNL1        0.1240
     94 C          16.3933   -5.7500    0.0000 C.ar    1  UNL1        0.3708
     95 C           6.8671   -7.2500    0.0000 C.ar    1  UNL1        0.1240
     96 C           9.4651   -2.7500    0.0000 C.2     1  UNL1        0.3320
     97 C           6.8671    8.7500    0.0000 C.ar    1  UNL1        0.1240
     98 C           8.5991  -10.2500    0.0000 C.2     1  UNL1        0.3320
     99 C          20.7235   -7.2500    0.0000 C.2     1  UNL1        0.3180
    100 C          18.1694   -5.7432    0.0000 C.ar    1  UNL1        0.1366
    101 C           6.8671   -0.2500    0.0000 C.ar    1  UNL1       -0.0193
    102 C           8.5991   -0.2500    0.0000 C.ar    1  UNL1       -0.0193
    103 C           5.1350    5.7500    0.0000 C.2     1  UNL1        0.3320
    104 C          16.3773   -4.7085    0.0000 C.ar    1  UNL1        0.0847
    105 C           8.5991   -3.2500    0.0000 C.2     1  UNL1        0.0231
    106 C           6.0010   -7.7500    0.0000 C.ar    1  UNL1       -0.0193
    107 C           7.7331   -7.7500    0.0000 C.ar    1  UNL1       -0.0193
    108 C          21.5895   -7.7500    0.0000 C.3     1  UNL1        0.1418
    109 C           7.7331  -10.7500    0.0000 C.2     1  UNL1        0.0231
    110 C           6.0010    9.2500    0.0000 C.ar    1  UNL1       -0.0193
    111 C           6.8671    7.7500    0.0000 C.ar    1  UNL1       -0.0193
    112 C           7.7331   -1.7500    0.0000 C.ar    1  UNL1       -0.0246
    113 C           6.8671   -1.2500    0.0000 C.ar    1  UNL1       -0.0511
    114 C           8.5991   -1.2500    0.0000 C.ar    1  UNL1       -0.0511
    115 C           6.8671   -9.2500    0.0000 C.ar    1  UNL1       -0.0246
    116 C          18.1774   -4.7016    0.0000 C.ar    1  UNL1        0.0225
    117 C          17.2753   -4.1807    0.0000 C.ar    1  UNL1        0.1293
    118 C           7.7331   -2.7500    0.0000 C.2     1  UNL1       -0.0478
    119 C           6.0010   -8.7500    0.0000 C.ar    1  UNL1       -0.0511
    120 C           7.7331   -8.7500    0.0000 C.ar    1  UNL1       -0.0511
    121 C           6.8671  -10.2500    0.0000 C.2     1  UNL1       -0.0478
    122 C           5.1350    7.7500    0.0000 C.ar    1  UNL1       -0.0246
    123 C           4.2690    6.2500    0.0000 C.2     1  UNL1        0.0231
    124 C           5.1350    8.7500    0.0000 C.ar    1  UNL1       -0.0511
    125 C           6.0010    7.2500    0.0000 C.ar    1  UNL1       -0.0511
    126 C           4.2690    7.2500    0.0000 C.2     1  UNL1       -0.0478
    127 C          22.4555   -7.2500    0.0000 C.2     1  UNL1        0.3155
    128 H          12.9292   -4.1300    0.0000 H       1  UNL1        0.0648
    129 H          11.5263   -3.9400    0.0000 H       1  UNL1        0.0647
    130 H          12.6002  -12.5600    0.0000 H       1  UNL1        0.0648
    131 H          10.6603  -11.4400    0.0000 H       1  UNL1        0.0647
    132 H          12.9292   -6.3700    0.0000 H       1  UNL1        0.0683
    133 H          10.6603   -5.0600    0.0000 H       1  UNL1        0.0658
    134 H          13.4662  -11.4400    0.0000 H       1  UNL1        0.0683
    135 H          11.1972  -10.1300    0.0000 H       1  UNL1        0.0658
    136 H          18.9914  -10.8700    0.0000 H       1  UNL1        0.0647
    137 H          17.5885  -11.0600    0.0000 H       1  UNL1        0.0648
    138 H          11.5263   -6.5600    0.0000 H       1  UNL1        0.1084
    139 H          18.9914   -8.6300    0.0000 H       1  UNL1        0.0658
    140 H          16.7224   -9.9400    0.0000 H       1  UNL1        0.0683
    141 H          12.9292  -10.1300    0.0000 H       1  UNL1        0.1084
    142 H          17.2594   -8.6300    0.0000 H       1  UNL1        0.1084
    143 H           5.1350    3.3700    0.0000 H       1  UNL1        0.0647
    144 H           5.1350    1.1300    0.0000 H       1  UNL1        0.0648
    145 H           6.5380    3.5600    0.0000 H       1  UNL1        0.0658
    146 H           6.5380    0.9400    0.0000 H       1  UNL1        0.0683
    147 H           9.7206   -4.1423    0.0000 H       1  UNL1        0.0725
    148 H          10.1191   -4.8326    0.0000 H       1  UNL1        0.0725
    149 H          10.7297   -9.7750    0.0000 H       1  UNL1        0.0725
    150 H           9.9326   -9.7750    0.0000 H       1  UNL1        0.0725
    151 H           4.2690   -4.1300    0.0000 H       1  UNL1        0.0647
    152 H           5.6720   -3.9400    0.0000 H       1  UNL1        0.0648
    153 H           8.2700   12.5600    0.0000 H       1  UNL1        0.0647
    154 H           9.1360   11.4400    0.0000 H       1  UNL1        0.0648
    155 H           7.4040    2.0600    0.0000 H       1  UNL1        0.1084
    156 H          20.0695   -9.3326    0.0000 H       1  UNL1        0.0724
    157 H          20.4680   -8.6423    0.0000 H       1  UNL1        0.0724
    158 H           4.2690   -6.3700    0.0000 H       1  UNL1        0.0647
    159 H           6.3301   11.4400    0.0000 H       1  UNL1        0.0647
    160 H           6.5380   -5.0600    0.0000 H       1  UNL1        0.0683
    161 H           8.5991   10.1300    0.0000 H       1  UNL1        0.0683
    162 H           6.0010   -6.3700    0.0000 H       1  UNL1        0.1084
    163 H           7.1962    9.9400    0.0000 H       1  UNL1        0.1084
    164 H           6.6116    4.1423    0.0000 H       1  UNL1        0.0725
    165 H           6.2131    4.8326    0.0000 H       1  UNL1        0.0725
    166 H          13.7953   -3.6300    0.0000 H       1  UNL1        0.2100
    167 H          12.6002   -2.9400    0.0000 H       1  UNL1        0.2100
    168 H          12.6002  -13.5600    0.0000 H       1  UNL1        0.2100
    169 H          10.3312  -12.8700    0.0000 H       1  UNL1        0.2100
    170 H          14.3322   -5.9400    0.0000 H       1  UNL1        0.2102
    171 H          14.3322  -11.9400    0.0000 H       1  UNL1        0.2102
    172 H          19.8574  -11.3700    0.0000 H       1  UNL1        0.2100
    173 H          18.6623  -12.0600    0.0000 H       1  UNL1        0.2100
    174 H          15.8564  -10.4400    0.0000 H       1  UNL1        0.2102
    175 H           3.0044   -6.7250    0.0000 H       1  UNL1        0.0584
    176 H           3.8015   -6.7250    0.0000 H       1  UNL1        0.0584
    177 H           5.3905   12.3577    0.0000 H       1  UNL1        0.0584
    178 H           5.7890   11.6674    0.0000 H       1  UNL1        0.0584
    179 H          13.7953   -6.6300    0.0000 H       1  UNL1        0.0664
    180 H          15.1982   -9.0600    0.0000 H       1  UNL1        0.0664
    181 H           3.7320    2.9400    0.0000 H       1  UNL1        0.2100
    182 H           3.7320    1.5600    0.0000 H       1  UNL1        0.2100
    183 H           5.4641   -0.0600    0.0000 H       1  UNL1        0.2102
    184 H           3.4030   -3.6300    0.0000 H       1  UNL1        0.2100
    185 H           4.5981   -2.9400    0.0000 H       1  UNL1        0.2100
    186 H           8.2700   13.5600    0.0000 H       1  UNL1        0.2100
    187 H           9.4651   12.8700    0.0000 H       1  UNL1        0.2100
    188 H           6.8671   -3.6300    0.0000 H       1  UNL1        0.2102
    189 H          10.0021   10.5600    0.0000 H       1  UNL1        0.2102
    190 H          17.7963   -7.5600    0.0000 H       1  UNL1        0.0667
    191 H          11.5263   -8.9400    0.0000 H       1  UNL1        0.2924
    192 H           2.0000   -6.0600    0.0000 H       1  UNL1        0.2095
    193 H           5.4641   13.5600    0.0000 H       1  UNL1        0.2095
    194 H           6.3301    0.0600    0.0000 H       1  UNL1        0.0654
    195 H           9.1360    0.0600    0.0000 H       1  UNL1        0.0654
    196 H          15.8368   -4.4047    0.0000 H       1  UNL1        0.0749
    197 H           8.5991   -3.8700    0.0000 H       1  UNL1        0.0689
    198 H           5.4641   -7.4400    0.0000 H       1  UNL1        0.0654
    199 H           8.2700   -7.4400    0.0000 H       1  UNL1        0.0654
    200 H          21.1910   -8.2250    0.0000 H       1  UNL1        0.0493
    201 H          21.9880   -8.2250    0.0000 H       1  UNL1        0.0493
    202 H           7.7331  -11.3700    0.0000 H       1  UNL1        0.0689
    203 H           6.0010    9.8700    0.0000 H       1  UNL1        0.0654
    204 H           7.4040    7.4400    0.0000 H       1  UNL1        0.0654
    205 H           6.3301   -1.5600    0.0000 H       1  UNL1        0.0625
    206 H           9.1360   -1.5600    0.0000 H       1  UNL1        0.0625
    207 H          18.7155   -4.3936    0.0000 H       1  UNL1        0.0691
    208 H           7.1962   -3.0600    0.0000 H       1  UNL1        0.0626
    209 H           5.4641   -9.0600    0.0000 H       1  UNL1        0.0625
    210 H           8.2700   -9.0600    0.0000 H       1  UNL1        0.0625
    211 H           6.3301  -10.5600    0.0000 H       1  UNL1        0.0626
    212 H           3.7320    5.9400    0.0000 H       1  UNL1        0.0689
    213 H           4.5981    9.0600    0.0000 H       1  UNL1        0.0625
    214 H           6.0010    6.6300    0.0000 H       1  UNL1        0.0625
    215 H           3.7320    7.5600    0.0000 H       1  UNL1        0.0626
    216 H          19.5700   -5.9494    0.0000 H       1  UNL1        0.2922
    217 H          17.8072   -2.8687    0.0000 H       1  UNL1        0.2921
    218 H          21.9186   -5.9400    0.0000 H       1  UNL1        0.2951
@<TRIPOS>UNITY_ATOM_ATTR
35 1
charge 1
@<TRIPOS>BOND
     1     1    52    1
     2     1    57    1
     3     2    54    1
     4     2    60    1
     5     3    58    1
     6     3    61    1
     7    57     4    1
     8     4    80    1
     9    60     5    1
    10     5    81    1
    11     6    64    1
    12     6    72    1
    13    61     7    1
    14     7    85    1
    15    47     8    1
    16     8   166    1
    17    48     9    1
    18     9   167    1
    19    49    10    1
    20    10   168    1
    21    50    11    1
    22    11   169    1
    23    51    12    1
    24    12   170    1
    25    53    13    1
    26    13   171    1
    27    55    14    1
    28    14   172    1
    29    15    74    1
    30    15    78    1
    31    56    16    1
    32    16   173    1
    33    17    75    1
    34    17    79    1
    35    59    18    1
    36    18   174    1
    37    62    19    1
    38    19   181    1
    39    63    20    1
    40    20   182    1
    41    21    66    1
    42    21    96    1
    43    22    67    1
    44    22    98    1
    45    72    23    1
    46    23    93    1
    47    65    24    1
    48    24   183    1
    49    25    73    1
    50    25    99    1
    51    68    26    1
    52    26   184    1
    53    69    27    1
    54    27   185    1
    55    70    28    1
    56    28   186    1
    57    71    29    1
    58    29   187    1
    59    78    30    1
    60    30    95    1
    61    79    31    1
    62    31    97    1
    63    76    32    1
    64    32   188    1
    65    77    33    1
    66    33   189    1
    67    34    82    1
    68    34   103    1
    69    35    90   ar
    70    35    94   ar
    71    36    83    1
    72    36   191    1
    73    37    86    1
    74    37   192    1
    75    38    87    1
    76    38   193    1
    77    39    96    2
    78    40    98    2
    79    41    99    2
    80    42   100    1
    81    42   216    1
    82    43   103    2
    83    44   117    1
    84    44   217    1
    85    45   127    1
    86    45   218    1
    87    46   127    2
    88    47    48    1
    89    47    51    1
    90    47   128    1
    91    48    52    1
    92    48   129    1
    93    49    50    1
    94    49    53    1
    95    49   130    1
    96    50    54    1
    97    50   131    1
    98    51    57    1
    99    51   132    1
   100    52    66    1
   101    52   133    1
   102    53    60    1
   103    53   134    1
   104    54    67    1
   105    54   135    1
   106    55    56    1
   107    55    58    1
   108    55   136    1
   109    56    59    1
   110    56   137    1
   111    57   138    1
   112    58    73    1
   113    58   139    1
   114    59    61    1
   115    59   140    1
   116    60   141    1
   117    61   142    1
   118    62    63    1
   119    62    64    1
   120    62   143    1
   121    63    65    1
   122    63   144    1
   123    64    82    1
   124    64   145    1
   125    65    72    1
   126    65   146    1
   127    66   147    1
   128    66   148    1
   129    67   149    1
   130    67   150    1
   131    68    69    1
   132    68    74    1
   133    68   151    1
   134    69    76    1
   135    69   152    1
   136    70    71    1
   137    70    75    1
   138    70   153    1
   139    71    77    1
   140    71   154    1
   141    72   155    1
   142    73   156    1
   143    73   157    1
   144    74    86    1
   145    74   158    1
   146    75    87    1
   147    75   159    1
   148    76    78    1
   149    76   160    1
   150    77    79    1
   151    77   161    1
   152    78   162    1
   153    79   163    1
   154    80    83   ar
   155    80    88   ar
   156    81    83   ar
   157    81    89   ar
   158    82   164    1
   159    82   165    1
   160    84    88   ar
   161    84    89   ar
   162    84    90    1
   163    85    90   ar
   164    85    91   ar
   165    86   175    1
   166    86   176    1
   167    87   177    1
   168    87   178    1
   169    88   179    1
   170    89   180    1
   171    91    92   ar
   172    91   190    1
   173    92    94   ar
   174    92   100   ar
   175    93   101   ar
   176    93   102   ar
   177    94   104   ar
   178    95   106   ar
   179    95   107   ar
   180    96   105    1
   181    97   110   ar
   182    97   111   ar
   183    98   109    1
   184    99   108    1
   185   100   116   ar
   186   101   113   ar
   187   101   194    1
   188   102   114   ar
   189   102   195    1
   190   103   123    1
   191   104   117   ar
   192   104   196    1
   193   105   118    2
   194   105   197    1
   195   106   119   ar
   196   106   198    1
   197   107   120   ar
   198   107   199    1
   199   108   127    1
   200   108   200    1
   201   108   201    1
   202   109   121    2
   203   109   202    1
   204   110   124   ar
   205   110   203    1
   206   111   125   ar
   207   111   204    1
   208   112   113   ar
   209   112   114   ar
   210   112   118    1
   211   113   205    1
   212   114   206    1
   213   115   119   ar
   214   115   120   ar
   215   115   121    1
   216   116   117   ar
   217   116   207    1
   218   118   208    1
   219   119   209    1
   220   120   210    1
   221   121   211    1
   222   122   124   ar
   223   122   125   ar
   224   122   126    1
   225   123   126    2
   226   123   212    1
   227   124   213    1
   228   125   214    1
   229   126   215    1
