@<TRIPOS>MOLECULE
IMPHY005857
 59 61 0 0 0
SMALL
GASTEIGER

@<TRIPOS>ATOM
      1 O          10.7156    2.9362    0.0000 O.3     1  UNL1       -0.3891
      2 O           8.1301   -2.6082    0.0000 O.2     1  UNL1       -0.4542
      3 O          11.6602   -0.5841    0.0000 O.3     1  UNL1       -0.4912
      4 O           8.1301    0.3918    0.0000 O.2     1  UNL1       -0.2863
      5 O          11.6602   -2.6324    0.0000 O.3     1  UNL1       -0.5032
      6 O           6.3817    0.4264    0.0000 O.3     1  UNL1       -0.5055
      7 O           4.6000   -2.6324    0.0000 O.3     1  UNL1       -0.5062
      8 C          10.7387    0.9363    0.0000 C.3     1  UNL1       -0.0204
      9 C          10.7271    1.9363    0.0000 C.3     1  UNL1        0.0608
     10 C           9.8785    0.4264    0.0000 C.3     1  UNL1       -0.0207
     11 C           9.8901   -0.5736    0.0000 C.ar    1  UNL1        0.0123
     12 C           8.9961   -1.1082    0.0000 C.ar    1  UNL1        0.0716
     13 C          11.7271    1.9478    0.0000 C.3     1  UNL1       -0.0363
     14 C           9.7272    1.9247    0.0000 C.3     1  UNL1       -0.0363
     15 C           8.9961   -2.1082    0.0000 C.ar    1  UNL1        0.1432
     16 C          10.7961   -1.0874    0.0000 C.ar    1  UNL1        0.1653
     17 C           8.1301   -0.6082    0.0000 C.ar    1  UNL1        0.2041
     18 C           7.2641   -1.1082    0.0000 C.ar    1  UNL1        0.1064
     19 C           7.2641   -2.1082    0.0000 C.ar    1  UNL1        0.1463
     20 C          10.7961   -2.1291    0.0000 C.ar    1  UNL1        0.1623
     21 C           9.8901   -2.6429    0.0000 C.ar    1  UNL1        0.0265
     22 C           6.3701   -0.5736    0.0000 C.ar    1  UNL1        0.1381
     23 C           5.4641   -1.0874    0.0000 C.ar    1  UNL1        0.0400
     24 C           6.3701   -2.6429    0.0000 C.ar    1  UNL1        0.0234
     25 C           5.4641   -2.1291    0.0000 C.ar    1  UNL1        0.1273
     26 C           4.6000   -0.5841    0.0000 C.3     1  UNL1       -0.0023
     27 C           3.7320   -1.0808    0.0000 C.2     1  UNL1       -0.0807
     28 C          12.5282   -1.0808    0.0000 C.3     1  UNL1        0.0790
     29 C           2.8680   -0.5774    0.0000 C.2     1  UNL1       -0.0793
     30 C           2.0000   -1.0741    0.0000 C.3     1  UNL1       -0.0440
     31 C           2.8718    0.4226    0.0000 C.3     1  UNL1       -0.0440
     32 H          10.9575    0.3562    0.0000 H       1  UNL1        0.0296
     33 H          11.3480    1.0510    0.0000 H       1  UNL1        0.0296
     34 H           9.6597    1.0065    0.0000 H       1  UNL1        0.0315
     35 H           9.2692    0.3116    0.0000 H       1  UNL1        0.0315
     36 H           9.7200    2.5447    0.0000 H       1  UNL1        0.0257
     37 H           9.1072    1.9175    0.0000 H       1  UNL1        0.0257
     38 H           9.7344    1.3047    0.0000 H       1  UNL1        0.0257
     39 H          11.7342    1.3279    0.0000 H       1  UNL1        0.0257
     40 H          12.3470    1.9550    0.0000 H       1  UNL1        0.0257
     41 H          11.7199    2.5678    0.0000 H       1  UNL1        0.0257
     42 H           9.8829   -3.2629    0.0000 H       1  UNL1        0.0692
     43 H          11.2489    3.2524    0.0000 H       1  UNL1        0.2101
     44 H           6.3773   -3.2629    0.0000 H       1  UNL1        0.0691
     45 H           5.0003   -0.1107    0.0000 H       1  UNL1        0.0358
     46 H           4.2033   -0.1076    0.0000 H       1  UNL1        0.0358
     47 H           3.7296   -1.7008    0.0000 H       1  UNL1        0.0575
     48 H          11.6578   -3.2524    0.0000 H       1  UNL1        0.2923
     49 H           5.8484    0.7425    0.0000 H       1  UNL1        0.2922
     50 H          12.2203   -1.6189    0.0000 H       1  UNL1        0.0660
     51 H          13.0663   -1.3887    0.0000 H       1  UNL1        0.0660
     52 H          12.8361   -0.5426    0.0000 H       1  UNL1        0.0660
     53 H           4.6024   -3.2524    0.0000 H       1  UNL1        0.2921
     54 H           1.6921   -0.5359    0.0000 H       1  UNL1        0.0274
     55 H           3.4918    0.4202    0.0000 H       1  UNL1        0.0274
     56 H           2.8742    1.0426    0.0000 H       1  UNL1        0.0274
     57 H           2.2518    0.4250    0.0000 H       1  UNL1        0.0274
     58 H           1.4619   -1.3820    0.0000 H       1  UNL1        0.0274
     59 H           2.3079   -1.6122    0.0000 H       1  UNL1        0.0274
@<TRIPOS>BOND
     1     1     9    1
     2     1    43    1
     3     2    15   ar
     4     2    19   ar
     5     3    16    1
     6     3    28    1
     7     4    17    2
     8     5    20    1
     9     5    48    1
    10     6    22    1
    11     6    49    1
    12     7    25    1
    13     7    53    1
    14     8     9    1
    15     8    10    1
    16     8    32    1
    17     8    33    1
    18     9    13    1
    19     9    14    1
    20    10    11    1
    21    10    34    1
    22    10    35    1
    23    11    12   ar
    24    11    16   ar
    25    12    15   ar
    26    12    17   ar
    27    13    39    1
    28    13    40    1
    29    13    41    1
    30    14    36    1
    31    14    37    1
    32    14    38    1
    33    15    21   ar
    34    16    20   ar
    35    17    18   ar
    36    18    19   ar
    37    18    22   ar
    38    19    24   ar
    39    20    21   ar
    40    21    42    1
    41    22    23   ar
    42    23    25   ar
    43    23    26    1
    44    24    25   ar
    45    24    44    1
    46    26    27    1
    47    26    45    1
    48    26    46    1
    49    27    29    2
    50    27    47    1
    51    28    50    1
    52    28    51    1
    53    28    52    1
    54    29    30    1
    55    29    31    1
    56    30    54    1
    57    30    58    1
    58    30    59    1
    59    31    55    1
    60    31    56    1
    61    31    57    1
