@<TRIPOS>MOLECULE
IMPHY005602
 32 34 0 0 0
SMALL
GASTEIGER

@<TRIPOS>ATOM
      1 O           6.0682   -0.2704    0.0000 O.2     1  UNL1       -0.4544
      2 O           4.3198    2.7642    0.0000 O.3     1  UNL1       -0.5058
      3 O           6.0682    2.7296    0.0000 O.2     1  UNL1       -0.2869
      4 O           2.5381   -0.2945    0.0000 O.3     1  UNL1       -0.5065
      5 O          10.3984    0.2296    0.0000 O.3     1  UNL1       -0.5032
      6 O           8.6663   -2.7704    0.0000 O.3     1  UNL1       -0.5032
      7 O          10.3984   -1.7704    0.0000 O.3     1  UNL1       -0.5009
      8 C           5.2022    1.2296    0.0000 C.ar    1  UNL1        0.1055
      9 C           6.9343    0.2296    0.0000 C.ar    1  UNL1        0.1395
     10 C           5.2022    0.2296    0.0000 C.ar    1  UNL1        0.1462
     11 C           7.8003   -0.2704    0.0000 C.ar    1  UNL1        0.0245
     12 C           6.0682    1.7296    0.0000 C.ar    1  UNL1        0.1966
     13 C           6.9343    1.2296    0.0000 C.ar    1  UNL1        0.0288
     14 C           4.3083    1.7643    0.0000 C.ar    1  UNL1        0.1347
     15 C           4.3083   -0.3051    0.0000 C.ar    1  UNL1        0.0231
     16 C           7.8003   -1.2704    0.0000 C.ar    1  UNL1       -0.0056
     17 C           8.6663    0.2296    0.0000 C.ar    1  UNL1       -0.0056
     18 C           3.4022    0.2088    0.0000 C.ar    1  UNL1        0.1239
     19 C           3.4022    1.2504    0.0000 C.ar    1  UNL1        0.0223
     20 C           9.5323   -0.2704    0.0000 C.ar    1  UNL1        0.1626
     21 C           8.6663   -1.7704    0.0000 C.ar    1  UNL1        0.1626
     22 C           9.5323   -1.2704    0.0000 C.ar    1  UNL1        0.2006
     23 H           7.4712    1.5396    0.0000 H       1  UNL1        0.0693
     24 H           4.3154   -0.9250    0.0000 H       1  UNL1        0.0691
     25 H           7.2634   -1.5804    0.0000 H       1  UNL1        0.0662
     26 H           8.6663    0.8496    0.0000 H       1  UNL1        0.0662
     27 H           2.8665    1.5625    0.0000 H       1  UNL1        0.0691
     28 H           3.7865    3.0804    0.0000 H       1  UNL1        0.2922
     29 H           2.0000    0.0134    0.0000 H       1  UNL1        0.2921
     30 H          10.3984    0.8496    0.0000 H       1  UNL1        0.2923
     31 H           8.1294   -3.0804    0.0000 H       1  UNL1        0.2923
     32 H          10.9353   -1.4604    0.0000 H       1  UNL1        0.2924
@<TRIPOS>BOND
     1     1     9   ar
     2     1    10   ar
     3     2    14    1
     4     2    28    1
     5     3    12    2
     6     4    18    1
     7     4    29    1
     8     5    20    1
     9     5    30    1
    10     6    21    1
    11     6    31    1
    12     7    22    1
    13     7    32    1
    14     8    10   ar
    15     8    12   ar
    16     8    14   ar
    17     9    11    1
    18     9    13   ar
    19    10    15   ar
    20    11    16   ar
    21    11    17   ar
    22    12    13   ar
    23    13    23    1
    24    14    19   ar
    25    15    18   ar
    26    15    24    1
    27    16    21   ar
    28    16    25    1
    29    17    20   ar
    30    17    26    1
    31    18    19   ar
    32    19    27    1
    33    20    22   ar
    34    21    22   ar
