@<TRIPOS>MOLECULE
IMPHY000485
 33 37 0 0 0
SMALL
GASTEIGER

@<TRIPOS>ATOM
      1 C          -4.7958   -4.3740    0.0000 C.3     1  UNL1        0.0329
      2 C          -4.7958   -4.9740    0.0000 C.3     1  UNL1        0.1519
      3 C          -4.2750   -5.2740    0.0000 C.3     1  UNL1        0.0282
      4 C          -3.7583   -4.9740    0.0000 C.3     1  UNL1        0.0024
      5 C          -3.7583   -4.3740    0.0000 C.3     1  UNL1        0.0005
      6 C          -4.2750   -4.0740    0.0000 C.3     1  UNL1        0.0026
      7 C          -3.2375   -5.2740    0.0000 C.3     1  UNL1        0.0001
      8 C          -2.7167   -4.9740    0.0000 C.3     1  UNL1        0.0003
      9 C          -2.7167   -4.3740    0.0000 C.3     1  UNL1        0.0035
     10 C          -3.2375   -4.0740    0.0000 C.3     1  UNL1        0.0046
     11 C          -2.2000   -4.0740    0.0000 C.3     1  UNL1        0.0173
     12 C          -2.2000   -3.4740    0.0000 C.2     1  UNL1       -0.0492
     13 C          -2.7167   -3.1740    0.0000 C.2     1  UNL1       -0.0346
     14 C          -3.2375   -3.4740    0.0000 C.3     1  UNL1        0.0254
     15 C          -1.6792   -4.3740    0.0000 C.3     1  UNL1        0.0367
     16 C          -1.1583   -4.0740    0.0000 C.3     1  UNL1        0.1548
     17 C          -1.1583   -3.4740    0.0000 C.3     1  UNL1        0.0597
     18 C          -1.6792   -3.1740    0.0000 C.3     1  UNL1        0.0227
     19 O          -5.3167   -5.2740    0.0000 O.3     1  UNL1       -0.2232
     20 C          -4.5750   -5.7948    0.0000 C.3     1  UNL1        0.0025
     21 C          -3.7583   -3.7740    0.0000 C.3     1  UNL1        0.0000
     22 C          -2.7167   -3.7740    0.0000 C.3     1  UNL1        0.0003
     23 C          -2.2000   -4.6740    0.0000 C.3     1  UNL1        0.0041
     24 C          -3.9750   -5.7948    0.0000 C.3     1  UNL1        0.0025
     25 C          -0.6375   -3.1740    0.0000 C.3     1  UNL1        0.1545
     26 C          -0.6375   -2.5740    0.0000 C.3     1  UNL1        0.0330
     27 C          -1.1583   -2.2740    0.0000 C.3     1  UNL1        0.0028
     28 C          -1.6792   -2.5740    0.0000 C.3     1  UNL1        0.0040
     29 C          -1.1583   -1.6740    0.0000 C.3     1  UNL1        0.0001
     30 C          -2.2000   -2.2740    0.0000 C.3     1  UNL1        0.0003
     31 O          -0.6417   -4.3740    0.0000 O.3     1  UNL1       -0.2230
     32 O          -0.1208   -3.4740    0.0000 O.3     1  UNL1       -0.2231
     33 C          -0.6375   -3.7740    0.0000 C.3     1  UNL1        0.0054
@<TRIPOS>BOND
     1     1     2    1
     2     2     3    1
     3     2    19    1
     4     3    20    1
     5     3    24    1
     6     4     3    1
     7     4     5    1
     8     4     7    1
     9     5     6    1
    10     5    21    1
    11     6     1    1
    12     7     8    1
    13     8     9    1
    14     9    10    1
    15     9    11    1
    16     9    22    1
    17    10     5    1
    18    10    14    1
    19    11    12    1
    20    11    15    1
    21    11    23    1
    22    12    13    2
    23    13    14    1
    24    15    16    1
    25    16    17    1
    26    16    31    1
    27    17    18    1
    28    17    25    1
    29    17    33    1
    30    18    12    1
    31    25    26    1
    32    25    32    1
    33    26    27    1
    34    27    28    1
    35    27    29    1
    36    28    18    1
    37    28    30    1
