@<TRIPOS>MOLECULE
IMPHY013929
 13 12 0 0 0
SMALL
GASTEIGER

@<TRIPOS>ATOM
      1 O           2.5369   -0.2500    0.0000 O.3     1  UNL1       -0.3902
      2 O           6.0010   -0.2500    0.0000 O.3     1  UNL1       -0.4773
      3 O           5.1350    1.2500    0.0000 O.2     1  UNL1       -0.2454
      4 C           4.2690   -0.2500    0.0000 C.2     1  UNL1        0.0545
      5 C           3.4030    0.2500    0.0000 C.3     1  UNL1        0.0754
      6 C           5.1350    0.2500    0.0000 C.2     1  UNL1        0.3344
      7 C           4.2690   -1.2500    0.0000 C.2     1  UNL1       -0.0865
      8 H           3.8015    0.7249    0.0000 H       1  UNL1        0.0609
      9 H           3.0044    0.7249    0.0000 H       1  UNL1        0.0609
     10 H           3.7320   -1.5600    0.0000 H       1  UNL1        0.0540
     11 H           4.8059   -1.5600    0.0000 H       1  UNL1        0.0540
     12 H           2.0000    0.0600    0.0000 H       1  UNL1        0.2099
     13 H           6.5380    0.0600    0.0000 H       1  UNL1        0.2954
@<TRIPOS>BOND
     1     1     5    1
     2     1    12    1
     3     2     6    1
     4     2    13    1
     5     3     6    2
     6     4     5    1
     7     4     6    1
     8     4     7    2
     9     5     8    1
    10     5     9    1
    11     7    10    1
    12     7    11    1
