@<TRIPOS>MOLECULE
IMPHY013629
 46 49 0 0 0
SMALL
GASTEIGER

@<TRIPOS>ATOM
      1 O           9.0105   -0.7138    0.0000 O.2     1  UNL1       -0.4217
      2 O           4.6660   -2.2950    0.0000 O.2     1  UNL1       -0.4217
      3 O           7.0821    1.5844    0.0000 O.3     1  UNL1       -0.5055
      4 O           4.6660    0.7050    0.0000 O.3     1  UNL1       -0.5055
      5 O           7.6837   -1.8270    0.0000 O.2     1  UNL1       -0.2447
      6 O           5.8741   -2.7347    0.0000 O.2     1  UNL1       -0.2447
      7 C           6.3981   -0.2950    0.0000 C.3     1  UNL1        0.0270
      8 C           7.3829   -0.1214    0.0000 C.ar    1  UNL1        0.0863
      9 C           5.5321   -0.7950    0.0000 C.ar    1  UNL1        0.0863
     10 C           6.3981    0.7050    0.0000 C.3     1  UNL1       -0.0537
     11 C           7.7249    0.8183    0.0000 C.ar    1  UNL1        0.1383
     12 C           4.6660   -0.2950    0.0000 C.ar    1  UNL1        0.1383
     13 C           8.7097    0.9920    0.0000 C.ar    1  UNL1        0.0622
     14 C           3.8000   -0.7950    0.0000 C.ar    1  UNL1        0.0622
     15 C           8.0257   -0.8874    0.0000 C.ar    1  UNL1        0.3446
     16 C           5.5321   -1.7950    0.0000 C.ar    1  UNL1        0.3446
     17 C           9.3525    0.2259    0.0000 C.ar    1  UNL1        0.1428
     18 C           3.8000   -1.7950    0.0000 C.ar    1  UNL1        0.1428
     19 C           9.0508    1.9762    0.0000 C.ar    1  UNL1       -0.0363
     20 C           2.9061   -0.2604    0.0000 C.ar    1  UNL1       -0.0363
     21 C          10.3810    0.3910    0.0000 C.ar    1  UNL1       -0.0185
     22 C           2.9061   -2.3297    0.0000 C.ar    1  UNL1       -0.0185
     23 C          10.0752    2.1649    0.0000 C.ar    1  UNL1       -0.0579
     24 C           2.0000   -0.7742    0.0000 C.ar    1  UNL1       -0.0579
     25 C           8.3992    2.7347    0.0000 C.3     1  UNL1       -0.0389
     26 C           2.9176    0.7396    0.0000 C.3     1  UNL1       -0.0389
     27 C          10.7448    1.3670    0.0000 C.ar    1  UNL1       -0.0580
     28 C           2.0000   -1.8158    0.0000 C.ar    1  UNL1       -0.0580
     29 H           5.8612    0.0150    0.0000 H       1  UNL1        0.0401
     30 H           7.0181    0.7050    0.0000 H       1  UNL1        0.0239
     31 H           6.3981    1.3250    0.0000 H       1  UNL1        0.0239
     32 H           5.7781    0.7050    0.0000 H       1  UNL1        0.0239
     33 H          10.7740   -0.0886    0.0000 H       1  UNL1        0.0654
     34 H           2.9132   -2.9496    0.0000 H       1  UNL1        0.0654
     35 H          10.2850    2.7484    0.0000 H       1  UNL1        0.0620
     36 H           1.4643   -0.4621    0.0000 H       1  UNL1        0.0620
     37 H           8.8696    3.1387    0.0000 H       1  UNL1        0.0278
     38 H           7.9952    3.2050    0.0000 H       1  UNL1        0.0278
     39 H           7.9289    2.3307    0.0000 H       1  UNL1        0.0278
     40 H           3.5376    0.7324    0.0000 H       1  UNL1        0.0278
     41 H           2.9248    1.3595    0.0000 H       1  UNL1        0.0278
     42 H           2.2977    0.7467    0.0000 H       1  UNL1        0.0278
     43 H          11.3558    1.4723    0.0000 H       1  UNL1        0.0619
     44 H           1.4643   -2.1279    0.0000 H       1  UNL1        0.0619
     45 H           7.2942    2.1670    0.0000 H       1  UNL1        0.2922
     46 H           4.1291    1.0150    0.0000 H       1  UNL1        0.2922
@<TRIPOS>BOND
     1     1    15   ar
     2     1    17   ar
     3     2    16   ar
     4     2    18   ar
     5     3    11    1
     6     3    45    1
     7     4    12    1
     8     4    46    1
     9     5    15    2
    10     6    16    2
    11     7     8    1
    12     7     9    1
    13     7    10    1
    14     7    29    1
    15     8    11   ar
    16     8    15   ar
    17     9    12   ar
    18     9    16   ar
    19    10    30    1
    20    10    31    1
    21    10    32    1
    22    11    13   ar
    23    12    14   ar
    24    13    17   ar
    25    13    19   ar
    26    14    18   ar
    27    14    20   ar
    28    17    21   ar
    29    18    22   ar
    30    19    23   ar
    31    19    25    1
    32    20    24   ar
    33    20    26    1
    34    21    27   ar
    35    21    33    1
    36    22    28   ar
    37    22    34    1
    38    23    27   ar
    39    23    35    1
    40    24    28   ar
    41    24    36    1
    42    25    37    1
    43    25    38    1
    44    25    39    1
    45    26    40    1
    46    26    41    1
    47    26    42    1
    48    27    43    1
    49    28    44    1
