@<TRIPOS>MOLECULE
IMPHY015081
 81 85 0 0 0
SMALL
GASTEIGER

@<TRIPOS>ATOM
      1 O           2.5357   -2.6574    0.0000 O.3     1  UNL1       -0.3912
      2 C           7.0628   -1.1050    0.0000 C.3     1  UNL1       -0.0231
      3 C           7.9288   -0.6051    0.0000 C.3     1  UNL1       -0.0233
      4 C           6.1968   -0.6051    0.0000 C.3     1  UNL1       -0.0294
      5 C           7.9288    0.3949    0.0000 C.3     1  UNL1       -0.0313
      6 C           5.2868   -1.1119    0.0000 C.3     1  UNL1       -0.0252
      7 C           5.2787   -2.1535    0.0000 C.3     1  UNL1       -0.0278
      8 C           8.8228    0.9296    0.0000 C.3     1  UNL1       -0.0260
      9 C           7.0789   -2.1466    0.0000 C.3     1  UNL1       -0.0466
     10 C           6.1968    0.3949    0.0000 C.3     1  UNL1       -0.0489
     11 C           9.7288    0.4158    0.0000 C.3     1  UNL1       -0.0281
     12 C           8.8228   -1.1397    0.0000 C.3     1  UNL1       -0.0464
     13 C           7.0628    0.8949    0.0000 C.3     1  UNL1       -0.0491
     14 C           6.1808   -2.6743    0.0000 C.3     1  UNL1       -0.0486
     15 C           4.3433   -2.7032    0.0000 C.3     1  UNL1       -0.0056
     16 C           9.7288   -0.6259    0.0000 C.3     1  UNL1       -0.0468
     17 C           4.3599   -0.5478    0.0000 C.3     1  UNL1       -0.0447
     18 C           7.7056   -1.8711    0.0000 C.3     1  UNL1       -0.0588
     19 C           8.2709   -1.5447    0.0000 C.3     1  UNL1       -0.0588
     20 C           8.7977    2.0143    0.0000 C.3     1  UNL1       -0.0194
     21 C           5.2945   -0.1119    0.0000 C.3     1  UNL1       -0.0590
     22 C           3.4037   -2.1607    0.0000 C.3     1  UNL1        0.0606
     23 C          10.6726    0.9510    0.0000 C.3     1  UNL1       -0.0436
     24 C           3.4120   -1.0758    0.0000 C.3     1  UNL1       -0.0258
     25 C          10.5987   -0.0775    0.0000 C.3     1  UNL1       -0.0593
     26 C          10.6726    2.0360    0.0000 C.3     1  UNL1       -0.0312
     27 C           9.7288    2.5712    0.0000 C.2     1  UNL1       -0.0735
     28 C           3.8467   -3.5712    0.0000 C.3     1  UNL1       -0.0572
     29 C           4.8466   -3.5673    0.0000 C.3     1  UNL1       -0.0572
     30 C           7.9222    2.4975    0.0000 C.3     1  UNL1       -0.0584
     31 C           9.7173    3.5712    0.0000 C.2     1  UNL1       -0.0992
     32 H           6.9329   -0.1801    0.0000 H       1  UNL1        0.0312
     33 H           7.9223    1.2449    0.0000 H       1  UNL1        0.0309
     34 H           5.2820   -3.0035    0.0000 H       1  UNL1        0.0312
     35 H           9.5522    1.3659    0.0000 H       1  UNL1        0.0315
     36 H           7.2969   -2.7270    0.0000 H       1  UNL1        0.0271
     37 H           7.6880   -2.0311    0.0000 H       1  UNL1        0.0271
     38 H           5.9847    0.9776    0.0000 H       1  UNL1        0.0268
     39 H           5.5862    0.2873    0.0000 H       1  UNL1        0.0268
     40 H           8.4182   -1.6095    0.0000 H       1  UNL1        0.0271
     41 H           9.2164   -1.6187    0.0000 H       1  UNL1        0.0271
     42 H           7.4613    1.3699    0.0000 H       1  UNL1        0.0268
     43 H           6.6643    1.3699    0.0000 H       1  UNL1        0.0268
     44 H           5.7835   -3.1503    0.0000 H       1  UNL1        0.0268
     45 H           6.5818   -3.1472    0.0000 H       1  UNL1        0.0268
     46 H           9.9379   -1.2096    0.0000 H       1  UNL1        0.0271
     47 H          10.3397   -0.5198    0.0000 H       1  UNL1        0.0271
     48 H           4.7681   -0.0812    0.0000 H       1  UNL1        0.0271
     49 H           3.9700   -0.0658    0.0000 H       1  UNL1        0.0271
     50 H           7.2306   -2.2696    0.0000 H       1  UNL1        0.0235
     51 H           8.1041   -2.3460    0.0000 H       1  UNL1        0.0235
     52 H           8.1805   -1.4726    0.0000 H       1  UNL1        0.0235
     53 H           7.6884   -1.7568    0.0000 H       1  UNL1        0.0235
     54 H           8.4830   -2.1273    0.0000 H       1  UNL1        0.0235
     55 H           8.8535   -1.3326    0.0000 H       1  UNL1        0.0235
     56 H           8.2674    1.6930    0.0000 H       1  UNL1        0.0346
     57 H           5.9145   -0.1167    0.0000 H       1  UNL1        0.0235
     58 H           5.2993    0.5081    0.0000 H       1  UNL1        0.0235
     59 H           4.6745   -0.1071    0.0000 H       1  UNL1        0.0235
     60 H           3.4025   -2.7807    0.0000 H       1  UNL1        0.0599
     61 H          10.8817    0.3673    0.0000 H       1  UNL1        0.0274
     62 H          11.2835    1.0571    0.0000 H       1  UNL1        0.0274
     63 H           3.2075   -0.4905    0.0000 H       1  UNL1        0.0290
     64 H           2.8004   -1.1771    0.0000 H       1  UNL1        0.0290
     65 H          10.2928   -0.6169    0.0000 H       1  UNL1        0.0235
     66 H          11.1380   -0.3834    0.0000 H       1  UNL1        0.0235
     67 H          10.9045    0.4618    0.0000 H       1  UNL1        0.0235
     68 H          11.2835    1.9299    0.0000 H       1  UNL1        0.0310
     69 H          10.8817    2.6197    0.0000 H       1  UNL1        0.0310
     70 H           3.3085   -3.2632    0.0000 H       1  UNL1        0.0236
     71 H           3.5387   -4.1093    0.0000 H       1  UNL1        0.0236
     72 H           4.3848   -3.8791    0.0000 H       1  UNL1        0.0236
     73 H           4.3109   -3.8794    0.0000 H       1  UNL1        0.0236
     74 H           5.1587   -4.1030    0.0000 H       1  UNL1        0.0236
     75 H           5.3824   -3.2553    0.0000 H       1  UNL1        0.0236
     76 H           8.2218    3.0403    0.0000 H       1  UNL1        0.0236
     77 H           7.3794    2.7971    0.0000 H       1  UNL1        0.0236
     78 H           7.6226    1.9547    0.0000 H       1  UNL1        0.0236
     79 H           2.0000   -2.3453    0.0000 H       1  UNL1        0.2098
     80 H          10.2506    3.8874    0.0000 H       1  UNL1        0.0534
     81 H           9.1768    3.8749    0.0000 H       1  UNL1        0.0534
@<TRIPOS>BOND
     1    22     1    1
     2     1    79    1
     3     2     3    1
     4     2     4    1
     5     2     9    1
     6     2    18    1
     7     3     5    1
     8     3    12    1
     9     3    19    1
    10     4     6    1
    11     4    10    1
    12     4    32    1
    13     5     8    1
    14     5    13    1
    15     5    33    1
    16     6     7    1
    17     6    17    1
    18     6    21    1
    19     7    14    1
    20     7    15    1
    21     7    34    1
    22     8    11    1
    23     8    20    1
    24     8    35    1
    25     9    14    1
    26     9    36    1
    27     9    37    1
    28    10    13    1
    29    10    38    1
    30    10    39    1
    31    11    16    1
    32    11    23    1
    33    11    25    1
    34    12    16    1
    35    12    40    1
    36    12    41    1
    37    13    42    1
    38    13    43    1
    39    14    44    1
    40    14    45    1
    41    15    22    1
    42    15    28    1
    43    15    29    1
    44    16    46    1
    45    16    47    1
    46    17    24    1
    47    17    48    1
    48    17    49    1
    49    18    50    1
    50    18    51    1
    51    18    52    1
    52    19    53    1
    53    19    54    1
    54    19    55    1
    55    20    27    1
    56    20    30    1
    57    20    56    1
    58    21    57    1
    59    21    58    1
    60    21    59    1
    61    22    24    1
    62    22    60    1
    63    23    26    1
    64    23    61    1
    65    23    62    1
    66    24    63    1
    67    24    64    1
    68    25    65    1
    69    25    66    1
    70    25    67    1
    71    26    27    1
    72    26    68    1
    73    26    69    1
    74    27    31    2
    75    28    70    1
    76    28    71    1
    77    28    72    1
    78    29    73    1
    79    29    74    1
    80    29    75    1
    81    30    76    1
    82    30    77    1
    83    30    78    1
    84    31    80    1
    85    31    81    1
