@<TRIPOS>MOLECULE
IMPHY016265
 36 35 0 0 0
SMALL
GASTEIGER

@<TRIPOS>ATOM
      1 C           7.1962    0.7500    0.0000 C.3     1  UNL1       -0.0530
      2 C           6.3301    0.2500    0.0000 C.3     1  UNL1       -0.0528
      3 C           8.0622    0.2500    0.0000 C.3     1  UNL1       -0.0531
      4 C           5.4641    0.7500    0.0000 C.3     1  UNL1       -0.0496
      5 C           8.9282    0.7500    0.0000 C.3     1  UNL1       -0.0533
      6 C           4.5981    0.2500    0.0000 C.3     1  UNL1       -0.0345
      7 C           9.7942    0.2500    0.0000 C.3     1  UNL1       -0.0559
      8 C           3.7320    0.7500    0.0000 C.2     1  UNL1       -0.0853
      9 C          10.6603    0.7500    0.0000 C.3     1  UNL1       -0.0653
     10 C           2.8660    0.2500    0.0000 C.2     1  UNL1       -0.0796
     11 C           2.0000    0.7500    0.0000 C.3     1  UNL1       -0.0440
     12 C           2.8660   -0.7500    0.0000 C.3     1  UNL1       -0.0440
     13 H           7.5947    1.2250    0.0000 H       1  UNL1        0.0265
     14 H           6.7976    1.2250    0.0000 H       1  UNL1        0.0265
     15 H           5.9316   -0.2249    0.0000 H       1  UNL1        0.0265
     16 H           6.7287   -0.2249    0.0000 H       1  UNL1        0.0265
     17 H           7.6636   -0.2249    0.0000 H       1  UNL1        0.0265
     18 H           8.4607   -0.2249    0.0000 H       1  UNL1        0.0265
     19 H           5.8626    1.2250    0.0000 H       1  UNL1        0.0268
     20 H           5.0656    1.2250    0.0000 H       1  UNL1        0.0268
     21 H           9.3267    1.2250    0.0000 H       1  UNL1        0.0265
     22 H           8.5297    1.2250    0.0000 H       1  UNL1        0.0265
     23 H           4.1996   -0.2249    0.0000 H       1  UNL1        0.0307
     24 H           4.9966   -0.2249    0.0000 H       1  UNL1        0.0307
     25 H           9.3957   -0.2249    0.0000 H       1  UNL1        0.0263
     26 H          10.1928   -0.2249    0.0000 H       1  UNL1        0.0263
     27 H           3.7320    1.3700    0.0000 H       1  UNL1        0.0571
     28 H          10.9703    0.2131    0.0000 H       1  UNL1        0.0230
     29 H          11.1972    1.0600    0.0000 H       1  UNL1        0.0230
     30 H          10.3503    1.2869    0.0000 H       1  UNL1        0.0230
     31 H           2.3100    1.2869    0.0000 H       1  UNL1        0.0274
     32 H           1.4631    1.0600    0.0000 H       1  UNL1        0.0274
     33 H           1.6900    0.2131    0.0000 H       1  UNL1        0.0274
     34 H           2.2460   -0.7500    0.0000 H       1  UNL1        0.0274
     35 H           2.8660   -1.3700    0.0000 H       1  UNL1        0.0274
     36 H           3.4860   -0.7500    0.0000 H       1  UNL1        0.0274
@<TRIPOS>BOND
     1     1     2    1
     2     1     3    1
     3     1    13    1
     4     1    14    1
     5     2     4    1
     6     2    15    1
     7     2    16    1
     8     3     5    1
     9     3    17    1
    10     3    18    1
    11     4     6    1
    12     4    19    1
    13     4    20    1
    14     5     7    1
    15     5    21    1
    16     5    22    1
    17     6     8    1
    18     6    23    1
    19     6    24    1
    20     7     9    1
    21     7    25    1
    22     7    26    1
    23     8    10    2
    24     8    27    1
    25     9    28    1
    26     9    29    1
    27     9    30    1
    28    10    11    1
    29    10    12    1
    30    11    31    1
    31    11    32    1
    32    11    33    1
    33    12    34    1
    34    12    35    1
    35    12    36    1
