@<TRIPOS>MOLECULE
IMPHY013625
 60 63 0 0 0
SMALL
GASTEIGER

@<TRIPOS>ATOM
      1 O           3.9061    0.1983    0.0000 O.3     1  UNL1       -0.4811
      2 O           4.8000   -3.2671    0.0000 O.3     1  UNL1       -0.3771
      3 O           7.4260    0.1983    0.0000 O.2     1  UNL1       -0.4616
      4 O           5.6660    3.2329    0.0000 O.3     1  UNL1       -0.5052
      5 O           7.4144    3.2675    0.0000 O.2     1  UNL1       -0.2863
      6 O          11.7884    3.7671    0.0000 O.3     1  UNL1       -0.5068
      7 C           4.8000   -1.2671    0.0000 C.3     1  UNL1       -0.0201
      8 C           4.8000   -2.2671    0.0000 C.3     1  UNL1        0.0639
      9 C           5.6660   -0.7671    0.0000 C.3     1  UNL1       -0.0181
     10 C           5.6660    0.2329    0.0000 C.ar    1  UNL1        0.0381
     11 C           4.8000    0.7329    0.0000 C.ar    1  UNL1        0.1390
     12 C           3.0000    0.7121    0.0000 C.3     1  UNL1        0.1235
     13 C           4.8000    1.7329    0.0000 C.ar    1  UNL1        0.0591
     14 C           6.5320    0.7329    0.0000 C.ar    1  UNL1        0.1486
     15 C           6.5320    1.7329    0.0000 C.ar    1  UNL1        0.1069
     16 C           5.6660    2.2329    0.0000 C.ar    1  UNL1        0.1418
     17 C           3.8000   -2.2671    0.0000 C.3     1  UNL1       -0.0361
     18 C           5.8000   -2.2671    0.0000 C.3     1  UNL1       -0.0361
     19 C           3.0000    1.7537    0.0000 C.2     1  UNL1       -0.0408
     20 C           3.9061    2.2676    0.0000 C.2     1  UNL1       -0.0478
     21 C           2.0000    0.7083    0.0000 C.3     1  UNL1       -0.0215
     22 C           2.5033   -0.1558    0.0000 C.3     1  UNL1       -0.0215
     23 C           7.4260    2.2676    0.0000 C.ar    1  UNL1        0.2037
     24 C           8.3321    1.7537    0.0000 C.ar    1  UNL1        0.0644
     25 C           8.3321    0.7121    0.0000 C.ar    1  UNL1        0.1039
     26 C           3.9340   -3.7671    0.0000 C.3     1  UNL1        0.0371
     27 C           9.1962    2.2571    0.0000 C.ar    1  UNL1       -0.0110
     28 C           9.1923    3.2571    0.0000 C.ar    1  UNL1       -0.0504
     29 C          10.0641    1.7604    0.0000 C.ar    1  UNL1       -0.0504
     30 C          10.0564    3.7604    0.0000 C.ar    1  UNL1       -0.0196
     31 C          10.9282    2.2638    0.0000 C.ar    1  UNL1       -0.0196
     32 C          10.9243    3.2637    0.0000 C.ar    1  UNL1        0.1169
     33 H           4.5880   -0.6845    0.0000 H       1  UNL1        0.0296
     34 H           4.1894   -1.3747    0.0000 H       1  UNL1        0.0296
     35 H           5.8781   -1.3497    0.0000 H       1  UNL1        0.0316
     36 H           6.2766   -0.6594    0.0000 H       1  UNL1        0.0316
     37 H           3.8000   -1.6471    0.0000 H       1  UNL1        0.0257
     38 H           3.1800   -2.2671    0.0000 H       1  UNL1        0.0257
     39 H           3.8000   -2.8871    0.0000 H       1  UNL1        0.0257
     40 H           5.8000   -2.8871    0.0000 H       1  UNL1        0.0257
     41 H           6.4200   -2.2671    0.0000 H       1  UNL1        0.0257
     42 H           5.8000   -1.6471    0.0000 H       1  UNL1        0.0257
     43 H           2.4643    2.0658    0.0000 H       1  UNL1        0.0611
     44 H           3.9132    2.8875    0.0000 H       1  UNL1        0.0624
     45 H           1.9976    1.3282    0.0000 H       1  UNL1        0.0271
     46 H           1.3800    0.7059    0.0000 H       1  UNL1        0.0271
     47 H           2.0024    0.0883    0.0000 H       1  UNL1        0.0271
     48 H           1.9652    0.1521    0.0000 H       1  UNL1        0.0271
     49 H           2.1954   -0.6940    0.0000 H       1  UNL1        0.0271
     50 H           3.0415   -0.4638    0.0000 H       1  UNL1        0.0271
     51 H           8.8678    0.4000    0.0000 H       1  UNL1        0.1037
     52 H           3.6240   -3.2301    0.0000 H       1  UNL1        0.0524
     53 H           3.3970   -4.0771    0.0000 H       1  UNL1        0.0524
     54 H           4.2440   -4.3040    0.0000 H       1  UNL1        0.0524
     55 H           5.1291    3.5429    0.0000 H       1  UNL1        0.2922
     56 H           8.6542    3.5650    0.0000 H       1  UNL1        0.0625
     57 H          10.0665    1.1404    0.0000 H       1  UNL1        0.0625
     58 H          10.0540    4.3804    0.0000 H       1  UNL1        0.0654
     59 H          11.4663    1.9558    0.0000 H       1  UNL1        0.0654
     60 H          12.3266    3.4592    0.0000 H       1  UNL1        0.2921
@<TRIPOS>BOND
     1     1    11    1
     2     1    12    1
     3     2     8    1
     4     2    26    1
     5     3    14   ar
     6     3    25   ar
     7     4    16    1
     8     4    55    1
     9     5    23    2
    10     6    32    1
    11     6    60    1
    12     7     8    1
    13     7     9    1
    14     7    33    1
    15     7    34    1
    16     8    17    1
    17     8    18    1
    18     9    10    1
    19     9    35    1
    20     9    36    1
    21    10    11   ar
    22    10    14   ar
    23    11    13   ar
    24    12    19    1
    25    12    21    1
    26    12    22    1
    27    13    16   ar
    28    13    20    1
    29    14    15   ar
    30    15    16   ar
    31    15    23   ar
    32    17    37    1
    33    17    38    1
    34    17    39    1
    35    18    40    1
    36    18    41    1
    37    18    42    1
    38    19    20    2
    39    19    43    1
    40    20    44    1
    41    21    45    1
    42    21    46    1
    43    21    47    1
    44    22    48    1
    45    22    49    1
    46    22    50    1
    47    23    24   ar
    48    24    25   ar
    49    24    27    1
    50    25    51    1
    51    26    52    1
    52    26    53    1
    53    26    54    1
    54    27    28   ar
    55    27    29   ar
    56    28    30   ar
    57    28    56    1
    58    29    31   ar
    59    29    57    1
    60    30    32   ar
    61    30    58    1
    62    31    32   ar
    63    31    59    1
