@<TRIPOS>MOLECULE
IMPHY015411
 25 24 0 0 0
SMALL
GASTEIGER

@<TRIPOS>ATOM
      1 O           5.4641   -0.7500    0.0000 O.2     1  UNL1       -0.2974
      2 C           3.7320    0.2500    0.0000 C.3     1  UNL1       -0.0375
      3 C           4.5981    0.7500    0.0000 C.3     1  UNL1        0.0084
      4 C           2.8660    0.7500    0.0000 C.3     1  UNL1       -0.0529
      5 C           3.7320   -0.7500    0.0000 C.3     1  UNL1       -0.0620
      6 C           5.4641    0.2500    0.0000 C.2     1  UNL1        0.1334
      7 C           2.0000    0.2500    0.0000 C.3     1  UNL1       -0.0650
      8 C           6.3301    0.7500    0.0000 C.3     1  UNL1        0.0030
      9 C           7.1962    0.2500    0.0000 C.3     1  UNL1       -0.0586
     10 H           4.2690   -0.0600    0.0000 H       1  UNL1        0.0302
     11 H           4.9966    1.2250    0.0000 H       1  UNL1        0.0344
     12 H           4.1996    1.2250    0.0000 H       1  UNL1        0.0344
     13 H           3.2646    1.2250    0.0000 H       1  UNL1        0.0265
     14 H           2.4675    1.2250    0.0000 H       1  UNL1        0.0265
     15 H           3.1120   -0.7500    0.0000 H       1  UNL1        0.0233
     16 H           3.7320   -1.3700    0.0000 H       1  UNL1        0.0233
     17 H           4.3520   -0.7500    0.0000 H       1  UNL1        0.0233
     18 H           1.6900    0.7869    0.0000 H       1  UNL1        0.0230
     19 H           1.4631   -0.0600    0.0000 H       1  UNL1        0.0230
     20 H           2.3100   -0.2869    0.0000 H       1  UNL1        0.0230
     21 H           6.7287    1.2250    0.0000 H       1  UNL1        0.0339
     22 H           5.9316    1.2250    0.0000 H       1  UNL1        0.0339
     23 H           6.8862   -0.2869    0.0000 H       1  UNL1        0.0234
     24 H           7.7331   -0.0600    0.0000 H       1  UNL1        0.0234
     25 H           7.5062    0.7869    0.0000 H       1  UNL1        0.0234
@<TRIPOS>BOND
     1     1     6    2
     2     2     3    1
     3     2     4    1
     4     2     5    1
     5     2    10    1
     6     3     6    1
     7     3    11    1
     8     3    12    1
     9     4     7    1
    10     4    13    1
    11     4    14    1
    12     5    15    1
    13     5    16    1
    14     5    17    1
    15     6     8    1
    16     7    18    1
    17     7    19    1
    18     7    20    1
    19     8     9    1
    20     8    21    1
    21     8    22    1
    22     9    23    1
    23     9    24    1
    24     9    25    1
