@<TRIPOS>MOLECULE
IMPHY003338
 17 17 0 0 0
SMALL
GASTEIGER

@<TRIPOS>ATOM
      1 O           2.0000   -0.5000    0.0000 O.3     1  UNL1       -0.4785
      2 N           3.7320    1.5000    0.0000 N.ar    1  UNL1       -0.2534
      3 N           3.7320   -0.5000    0.0000 N.ar    1  UNL1       -0.2183
      4 C           2.8660    1.0000    0.0000 C.ar    1  UNL1        0.0995
      5 C           2.8660    0.0000    0.0000 C.ar    1  UNL1        0.2362
      6 C           2.0000    1.5000    0.0000 C.3     1  UNL1       -0.0172
      7 C           4.5981    1.0000    0.0000 C.ar    1  UNL1        0.0462
      8 C           4.5981    0.0000    0.0000 C.ar    1  UNL1        0.0495
      9 C           2.0000   -1.5000    0.0000 C.3     1  UNL1        0.0805
     10 H           2.3100    2.0369    0.0000 H       1  UNL1        0.0294
     11 H           1.4631    1.8100    0.0000 H       1  UNL1        0.0294
     12 H           1.6900    0.9631    0.0000 H       1  UNL1        0.0294
     13 H           5.1350    1.3100    0.0000 H       1  UNL1        0.0845
     14 H           5.1350   -0.3100    0.0000 H       1  UNL1        0.0846
     15 H           1.3800   -1.5000    0.0000 H       1  UNL1        0.0660
     16 H           2.0000   -2.1200    0.0000 H       1  UNL1        0.0660
     17 H           2.6200   -1.5000    0.0000 H       1  UNL1        0.0660
@<TRIPOS>BOND
     1     1     5    1
     2     1     9    1
     3     2     4   ar
     4     2     7   ar
     5     3     5   ar
     6     3     8   ar
     7     4     5   ar
     8     4     6    1
     9     6    10    1
    10     6    11    1
    11     6    12    1
    12     7     8   ar
    13     7    13    1
    14     8    14    1
    15     9    15    1
    16     9    16    1
    17     9    17    1
