@<TRIPOS>MOLECULE
IMPHY002187
 76 78 0 0 0
SMALL
GASTEIGER

@<TRIPOS>ATOM
      1 O           6.8671   -4.2648    0.0000 O.3     1  UNL1       -0.3093
      2 O           5.1350   -4.2648    0.0000 O.3     1  UNL1       -0.3404
      3 O           6.0010   -2.7648    0.0000 O.2     1  UNL1       -0.4699
      4 O           7.7490    0.3044    0.0000 O.3     1  UNL1       -0.4213
      5 O           6.8671   -6.2648    0.0000 O.3     1  UNL1       -0.3841
      6 O           9.5191    0.2803    0.0000 O.3     1  UNL1       -0.4244
      7 O           5.1350   -7.2648    0.0000 O.3     1  UNL1       -0.3864
      8 O           3.4030   -6.2648    0.0000 O.3     1  UNL1       -0.3865
      9 O           2.5369   -4.7648    0.0000 O.3     1  UNL1       -0.3924
     10 O           5.9793    0.2666    0.0000 O.2     1  UNL1       -0.2451
     11 O           8.6588    1.7836    0.0000 O.2     1  UNL1       -0.2504
     12 O          13.0101    7.2669    0.0000 O.3     1  UNL1       -0.3910
     13 C           7.7331   -1.7648    0.0000 C.3     1  UNL1        0.0125
     14 C           7.7331   -2.7648    0.0000 C.3     1  UNL1        0.0469
     15 C           6.8671   -3.2648    0.0000 C.3     1  UNL1        0.2102
     16 C           8.6431   -1.2580    0.0000 C.3     1  UNL1        0.0297
     17 C           6.0010   -4.7648    0.0000 C.3     1  UNL1        0.1918
     18 C           6.0010   -5.7648    0.0000 C.3     1  UNL1        0.1342
     19 C           5.1350   -6.2648    0.0000 C.3     1  UNL1        0.1141
     20 C           6.8671   -1.2648    0.0000 C.2     1  UNL1        0.0749
     21 C           4.2690   -5.7648    0.0000 C.3     1  UNL1        0.1119
     22 C           4.2690   -4.7648    0.0000 C.3     1  UNL1        0.1130
     23 C           8.6511   -0.2164    0.0000 C.3     1  UNL1        0.2500
     24 C           8.5991   -3.2648    0.0000 C.2     1  UNL1       -0.0816
     25 C           6.0010   -1.7648    0.0000 C.2     1  UNL1        0.0981
     26 C           6.8510   -0.2233    0.0000 C.2     1  UNL1        0.3413
     27 C           3.4030   -4.2648    0.0000 C.3     1  UNL1        0.0730
     28 C           9.4651   -2.7648    0.0000 C.2     1  UNL1       -0.1022
     29 C          10.3909    1.7769    0.0000 C.3     1  UNL1        0.0538
     30 C           9.5229    1.2803    0.0000 C.2     1  UNL1        0.3128
     31 C          10.3947    2.7769    0.0000 C.3     1  UNL1       -0.0401
     32 C          11.2627    3.2736    0.0000 C.3     1  UNL1       -0.0486
     33 C          11.2550    1.2736    0.0000 C.3     1  UNL1       -0.0523
     34 C          11.2665    4.2736    0.0000 C.3     1  UNL1       -0.0319
     35 C          12.1345    4.7702    0.0000 C.2     1  UNL1       -0.0744
     36 C          12.9986    4.2669    0.0000 C.3     1  UNL1       -0.0437
     37 C          12.1383    5.7702    0.0000 C.2     1  UNL1       -0.0600
     38 C          13.0063    6.2669    0.0000 C.3     1  UNL1        0.0626
     39 H           8.2676   -2.0789    0.0000 H       1  UNL1        0.0362
     40 H           7.7331   -3.3848    0.0000 H       1  UNL1        0.0410
     41 H           6.3301   -3.5748    0.0000 H       1  UNL1        0.1062
     42 H           8.8476   -1.8432    0.0000 H       1  UNL1        0.0343
     43 H           9.2547   -1.1566    0.0000 H       1  UNL1        0.0343
     44 H           6.0010   -4.1448    0.0000 H       1  UNL1        0.0939
     45 H           6.0010   -6.3848    0.0000 H       1  UNL1        0.0671
     46 H           4.5981   -6.5748    0.0000 H       1  UNL1        0.0648
     47 H           3.7320   -5.4548    0.0000 H       1  UNL1        0.0647
     48 H           4.2690   -4.1448    0.0000 H       1  UNL1        0.0647
     49 H           8.6523    0.4036    0.0000 H       1  UNL1        0.1207
     50 H           8.5991   -3.8848    0.0000 H       1  UNL1        0.0571
     51 H           5.4641   -1.4548    0.0000 H       1  UNL1        0.1029
     52 H           3.8015   -3.7899    0.0000 H       1  UNL1        0.0584
     53 H           3.0044   -3.7899    0.0000 H       1  UNL1        0.0584
     54 H           6.8671   -6.8848    0.0000 H       1  UNL1        0.2101
     55 H           4.5981   -7.5748    0.0000 H       1  UNL1        0.2100
     56 H           3.4030   -6.8848    0.0000 H       1  UNL1        0.2100
     57 H          10.0021   -3.0748    0.0000 H       1  UNL1        0.0532
     58 H           9.4651   -2.1448    0.0000 H       1  UNL1        0.0532
     59 H          10.3885    1.1570    0.0000 H       1  UNL1        0.0411
     60 H          10.1849    3.3604    0.0000 H       1  UNL1        0.0273
     61 H           9.7837    2.6716    0.0000 H       1  UNL1        0.0273
     62 H           2.0000   -4.4548    0.0000 H       1  UNL1        0.2095
     63 H          11.4725    2.6902    0.0000 H       1  UNL1        0.0269
     64 H          11.8737    3.3789    0.0000 H       1  UNL1        0.0269
     65 H          10.9429    0.7379    0.0000 H       1  UNL1        0.0238
     66 H          11.7907    0.9615    0.0000 H       1  UNL1        0.0238
     67 H          11.5670    1.8093    0.0000 H       1  UNL1        0.0238
     68 H          11.0567    4.8570    0.0000 H       1  UNL1        0.0310
     69 H          10.6555    4.1683    0.0000 H       1  UNL1        0.0310
     70 H          12.6865    3.7312    0.0000 H       1  UNL1        0.0274
     71 H          13.5343    3.9548    0.0000 H       1  UNL1        0.0274
     72 H          13.3106    4.8026    0.0000 H       1  UNL1        0.0274
     73 H          11.6026    6.0823    0.0000 H       1  UNL1        0.0594
     74 H          13.2161    5.6835    0.0000 H       1  UNL1        0.0601
     75 H          13.6173    6.3722    0.0000 H       1  UNL1        0.0601
     76 H          13.5482    7.5748    0.0000 H       1  UNL1        0.2098
@<TRIPOS>BOND
     1     1    15    1
     2    17     1    1
     3     2    17    1
     4     2    22    1
     5     3    15    1
     6     3    25    1
     7     4    23    1
     8     4    26    1
     9    18     5    1
    10     5    54    1
    11     6    23    1
    12     6    30    1
    13    19     7    1
    14     7    55    1
    15    21     8    1
    16     8    56    1
    17     9    27    1
    18     9    62    1
    19    10    26    2
    20    11    30    2
    21    12    38    1
    22    12    76    1
    23    13    14    1
    24    13    16    1
    25    13    20    1
    26    13    39    1
    27    14    15    1
    28    14    24    1
    29    14    40    1
    30    15    41    1
    31    16    23    1
    32    16    42    1
    33    16    43    1
    34    17    18    1
    35    17    44    1
    36    18    19    1
    37    18    45    1
    38    19    21    1
    39    19    46    1
    40    20    25    2
    41    20    26    1
    42    21    22    1
    43    21    47    1
    44    22    27    1
    45    22    48    1
    46    23    49    1
    47    24    28    2
    48    24    50    1
    49    25    51    1
    50    27    52    1
    51    27    53    1
    52    28    57    1
    53    28    58    1
    54    29    30    1
    55    29    31    1
    56    29    33    1
    57    29    59    1
    58    31    32    1
    59    31    60    1
    60    31    61    1
    61    32    34    1
    62    32    63    1
    63    32    64    1
    64    33    65    1
    65    33    66    1
    66    33    67    1
    67    34    35    1
    68    34    68    1
    69    34    69    1
    70    35    36    1
    71    35    37    2
    72    36    70    1
    73    36    71    1
    74    36    72    1
    75    37    38    1
    76    37    73    1
    77    38    74    1
    78    38    75    1
