@<TRIPOS>MOLECULE
IMPHY009919
 33 34 0 0 0
SMALL
GASTEIGER

@<TRIPOS>ATOM
      1 O           4.5981   -1.9796    0.0000 O.3     1  UNL1       -0.5057
      2 O           4.5981    2.0204    0.0000 O.3     1  UNL1       -0.5053
      3 O           6.3465   -2.0142    0.0000 O.2     1  UNL1       -0.5027
      4 O           8.1282   -1.0038    0.0000 O.2     1  UNL1       -0.4883
      5 O           6.3465    2.0550    0.0000 O.2     1  UNL1       -0.2829
      6 O           8.1282    1.0445    0.0000 O.2     1  UNL1       -0.2798
      7 O           2.8660    2.0204    0.0000 O.2     1  UNL1       -0.2922
      8 C           5.4641   -0.4796    0.0000 C.ar    1  UNL1        0.0763
      9 C           5.4641    0.5204    0.0000 C.ar    1  UNL1        0.0820
     10 C           3.7320   -0.4796    0.0000 C.ar    1  UNL1        0.0057
     11 C           3.7320    0.5204    0.0000 C.ar    1  UNL1        0.0656
     12 C           4.5981   -0.9796    0.0000 C.ar    1  UNL1        0.1321
     13 C           4.5981    1.0204    0.0000 C.ar    1  UNL1        0.1394
     14 C           6.3580   -1.0143    0.0000 C.2     1  UNL1        0.1741
     15 C           6.3580    1.0550    0.0000 C.2     1  UNL1        0.2405
     16 C           7.2641   -0.5004    0.0000 C.2     1  UNL1        0.2131
     17 C           2.8660   -0.9796    0.0000 C.3     1  UNL1       -0.0354
     18 C           7.2641    0.5412    0.0000 C.2     1  UNL1        0.2708
     19 C           2.8660    1.0204    0.0000 C.2     1  UNL1        0.1640
     20 C           2.0000    0.5204    0.0000 C.3     1  UNL1       -0.0013
     21 C           8.9962   -0.5071    0.0000 C.3     1  UNL1        0.0791
     22 H           2.5560   -0.4427    0.0000 H       1  UNL1        0.0279
     23 H           2.3291   -1.2896    0.0000 H       1  UNL1        0.0279
     24 H           3.1760   -1.5165    0.0000 H       1  UNL1        0.0279
     25 H           4.0611   -2.2896    0.0000 H       1  UNL1        0.2922
     26 H           1.6900    1.0573    0.0000 H       1  UNL1        0.0309
     27 H           1.4631    0.2104    0.0000 H       1  UNL1        0.0309
     28 H           2.3100   -0.0165    0.0000 H       1  UNL1        0.0309
     29 H           4.0611    2.3304    0.0000 H       1  UNL1        0.2922
     30 H           6.8798   -2.3304    0.0000 H       1  UNL1        0.2923
     31 H           9.3041   -1.0452    0.0000 H       1  UNL1        0.0660
     32 H           9.5343   -0.1992    0.0000 H       1  UNL1        0.0660
     33 H           8.6882    0.0310    0.0000 H       1  UNL1        0.0660
@<TRIPOS>BOND
     1     1    12    1
     2     1    25    1
     3     2    13    1
     4     2    29    1
     5     3    14    1
     6     3    30    1
     7     4    16    1
     8     4    21    1
     9     5    15    2
    10     6    18    2
    11     7    19    2
    12     8     9   ar
    13     8    12   ar
    14     8    14    1
    15     9    13   ar
    16     9    15    1
    17    10    11   ar
    18    10    12   ar
    19    10    17    1
    20    11    13   ar
    21    11    19    1
    22    14    16    2
    23    15    18    1
    24    16    18    1
    25    17    22    1
    26    17    23    1
    27    17    24    1
    28    19    20    1
    29    20    26    1
    30    20    27    1
    31    20    28    1
    32    21    31    1
    33    21    32    1
    34    21    33    1
