@<TRIPOS>MOLECULE
IMPHY003004
 22 22 0 0 0
SMALL
GASTEIGER

@<TRIPOS>ATOM
      1 N           4.5981   -1.0000    0.0000 N.ar    1  UNL1       -0.2566
      2 N           4.5981    1.0000    0.0000 N.ar    1  UNL1       -0.2566
      3 C           2.8660   -1.0000    0.0000 C.3     1  UNL1       -0.0118
      4 C           6.3301    1.0000    0.0000 C.3     1  UNL1       -0.0118
      5 C           3.7320   -0.5000    0.0000 C.ar    1  UNL1        0.0591
      6 C           5.4641    0.5000    0.0000 C.ar    1  UNL1        0.0591
      7 C           3.7320    0.5000    0.0000 C.ar    1  UNL1        0.0491
      8 C           5.4641   -0.5000    0.0000 C.ar    1  UNL1        0.0491
      9 C           2.0000   -0.5000    0.0000 C.3     1  UNL1       -0.0598
     10 C           7.1962    0.5000    0.0000 C.3     1  UNL1       -0.0598
     11 H           2.4675   -1.4750    0.0000 H       1  UNL1        0.0326
     12 H           3.2646   -1.4750    0.0000 H       1  UNL1        0.0326
     13 H           6.7287    1.4750    0.0000 H       1  UNL1        0.0326
     14 H           5.9316    1.4750    0.0000 H       1  UNL1        0.0326
     15 H           3.1951    0.8100    0.0000 H       1  UNL1        0.0848
     16 H           6.0010   -0.8100    0.0000 H       1  UNL1        0.0848
     17 H           2.3100    0.0369    0.0000 H       1  UNL1        0.0233
     18 H           1.4631   -0.1900    0.0000 H       1  UNL1        0.0233
     19 H           1.6900   -1.0369    0.0000 H       1  UNL1        0.0233
     20 H           6.8862   -0.0369    0.0000 H       1  UNL1        0.0233
     21 H           7.7331    0.1900    0.0000 H       1  UNL1        0.0233
     22 H           7.5062    1.0369    0.0000 H       1  UNL1        0.0233
@<TRIPOS>BOND
     1     1     5   ar
     2     1     8   ar
     3     2     6   ar
     4     2     7   ar
     5     3     5    1
     6     3     9    1
     7     3    11    1
     8     3    12    1
     9     4     6    1
    10     4    10    1
    11     4    13    1
    12     4    14    1
    13     5     7   ar
    14     6     8   ar
    15     7    15    1
    16     8    16    1
    17     9    17    1
    18     9    18    1
    19     9    19    1
    20    10    20    1
    21    10    21    1
    22    10    22    1
