@<TRIPOS>MOLECULE
IMPHY012279
 37 37 0 0 0
SMALL
GASTEIGER

@<TRIPOS>ATOM
      1 C           2.8660    0.2500    0.0000 C.3     1  UNL1       -0.0184
      2 C           3.7320    0.7500    0.0000 C.3     1  UNL1       -0.0430
      3 C           2.8660   -0.7500    0.0000 C.ar    1  UNL1       -0.0445
      4 C           3.7320    1.7500    0.0000 C.3     1  UNL1       -0.0340
      5 C           2.0000    0.7500    0.0000 C.3     1  UNL1       -0.0584
      6 C           2.0000   -1.2500    0.0000 C.ar    1  UNL1       -0.0581
      7 C           3.7320   -1.2500    0.0000 C.ar    1  UNL1       -0.0581
      8 C           4.5981    2.2500    0.0000 C.2     1  UNL1       -0.0853
      9 C           2.0000   -2.2500    0.0000 C.ar    1  UNL1       -0.0586
     10 C           3.7320   -2.2500    0.0000 C.ar    1  UNL1       -0.0586
     11 C           2.8660   -2.7500    0.0000 C.ar    1  UNL1       -0.0504
     12 C           4.5981    3.2500    0.0000 C.2     1  UNL1       -0.0796
     13 C           2.8660   -3.7500    0.0000 C.3     1  UNL1       -0.0397
     14 C           5.4641    3.7500    0.0000 C.3     1  UNL1       -0.0440
     15 C           3.7320    3.7500    0.0000 C.3     1  UNL1       -0.0440
     16 H           2.8660    0.8700    0.0000 H       1  UNL1        0.0346
     17 H           3.9441    0.1674    0.0000 H       1  UNL1        0.0274
     18 H           4.3426    0.8577    0.0000 H       1  UNL1        0.0274
     19 H           3.5200    2.3326    0.0000 H       1  UNL1        0.0308
     20 H           3.1215    1.6423    0.0000 H       1  UNL1        0.0308
     21 H           2.3100    1.2869    0.0000 H       1  UNL1        0.0236
     22 H           1.4631    1.0600    0.0000 H       1  UNL1        0.0236
     23 H           1.6900    0.2131    0.0000 H       1  UNL1        0.0236
     24 H           1.4631   -0.9400    0.0000 H       1  UNL1        0.0620
     25 H           4.2690   -0.9400    0.0000 H       1  UNL1        0.0620
     26 H           5.1350    1.9400    0.0000 H       1  UNL1        0.0571
     27 H           1.4631   -2.5600    0.0000 H       1  UNL1        0.0620
     28 H           4.2690   -2.5600    0.0000 H       1  UNL1        0.0620
     29 H           2.2460   -3.7500    0.0000 H       1  UNL1        0.0278
     30 H           2.8660   -4.3700    0.0000 H       1  UNL1        0.0278
     31 H           3.4860   -3.7500    0.0000 H       1  UNL1        0.0278
     32 H           5.7741    3.2131    0.0000 H       1  UNL1        0.0274
     33 H           6.0010    4.0600    0.0000 H       1  UNL1        0.0274
     34 H           5.1541    4.2869    0.0000 H       1  UNL1        0.0274
     35 H           4.0420    4.2869    0.0000 H       1  UNL1        0.0274
     36 H           3.1951    4.0600    0.0000 H       1  UNL1        0.0274
     37 H           3.4220    3.2131    0.0000 H       1  UNL1        0.0274
@<TRIPOS>BOND
     1     1     2    1
     2     1     3    1
     3     1     5    1
     4     1    16    1
     5     2     4    1
     6     2    17    1
     7     2    18    1
     8     3     6   ar
     9     3     7   ar
    10     4     8    1
    11     4    19    1
    12     4    20    1
    13     5    21    1
    14     5    22    1
    15     5    23    1
    16     6     9   ar
    17     6    24    1
    18     7    10   ar
    19     7    25    1
    20     8    12    2
    21     8    26    1
    22     9    11   ar
    23     9    27    1
    24    10    11   ar
    25    10    28    1
    26    11    13    1
    27    12    14    1
    28    12    15    1
    29    13    29    1
    30    13    30    1
    31    13    31    1
    32    14    32    1
    33    14    33    1
    34    14    34    1
    35    15    35    1
    36    15    36    1
    37    15    37    1
