@<TRIPOS>MOLECULE
IMPHY017662
 56 56 0 0 0
SMALL
GASTEIGER

@<TRIPOS>ATOM
      1 O           7.7331    2.2500    0.0000 O.2     1  UNL1       -0.2927
      2 O           4.2690    6.2500    0.0000 O.3     1  UNL1       -0.4915
      3 O           2.5369    5.2500    0.0000 O.3     1  UNL1       -0.5033
      4 C           9.4651   -2.7500    0.0000 C.3     1  UNL1       -0.0530
      5 C           9.4651   -3.7500    0.0000 C.3     1  UNL1       -0.0531
      6 C           8.5991   -2.2500    0.0000 C.3     1  UNL1       -0.0528
      7 C          10.3312   -4.2500    0.0000 C.3     1  UNL1       -0.0531
      8 C           8.5991   -1.2500    0.0000 C.3     1  UNL1       -0.0496
      9 C          10.3312   -5.2500    0.0000 C.3     1  UNL1       -0.0533
     10 C           7.7331   -0.7500    0.0000 C.3     1  UNL1       -0.0344
     11 C          11.1972   -5.7500    0.0000 C.3     1  UNL1       -0.0559
     12 C          11.1972   -6.7500    0.0000 C.3     1  UNL1       -0.0653
     13 C           7.7331    0.2500    0.0000 C.2     1  UNL1       -0.0807
     14 C           6.8671    0.7500    0.0000 C.2     1  UNL1       -0.0231
     15 C           6.0010    2.2500    0.0000 C.3     1  UNL1        0.0138
     16 C           6.0010    3.2500    0.0000 C.3     1  UNL1       -0.0206
     17 C           6.8671    1.7500    0.0000 C.2     1  UNL1        0.1561
     18 C           5.1350    3.7500    0.0000 C.ar    1  UNL1       -0.0433
     19 C           5.1350    4.7500    0.0000 C.ar    1  UNL1       -0.0131
     20 C           4.2690    3.2500    0.0000 C.ar    1  UNL1       -0.0549
     21 C           4.2690    5.2500    0.0000 C.ar    1  UNL1        0.1615
     22 C           3.4030    3.7500    0.0000 C.ar    1  UNL1       -0.0163
     23 C           3.4030    4.7500    0.0000 C.ar    1  UNL1        0.1585
     24 C           5.1350    6.7500    0.0000 C.3     1  UNL1        0.0790
     25 H          10.0757   -2.8577    0.0000 H       1  UNL1        0.0265
     26 H           9.6772   -2.1674    0.0000 H       1  UNL1        0.0265
     27 H           8.8546   -3.6423    0.0000 H       1  UNL1        0.0265
     28 H           9.2531   -4.3326    0.0000 H       1  UNL1        0.0265
     29 H           7.9885   -2.1423    0.0000 H       1  UNL1        0.0265
     30 H           8.3871   -2.8326    0.0000 H       1  UNL1        0.0265
     31 H          10.9417   -4.3577    0.0000 H       1  UNL1        0.0265
     32 H          10.5432   -3.6674    0.0000 H       1  UNL1        0.0265
     33 H           9.2097   -1.3577    0.0000 H       1  UNL1        0.0268
     34 H           8.8112   -0.6674    0.0000 H       1  UNL1        0.0268
     35 H           9.7206   -5.1423    0.0000 H       1  UNL1        0.0265
     36 H          10.1191   -5.8326    0.0000 H       1  UNL1        0.0265
     37 H           7.1225   -0.6423    0.0000 H       1  UNL1        0.0307
     38 H           7.5210   -1.3326    0.0000 H       1  UNL1        0.0307
     39 H          11.8078   -5.8577    0.0000 H       1  UNL1        0.0263
     40 H          11.4092   -5.1674    0.0000 H       1  UNL1        0.0263
     41 H          10.5772   -6.7500    0.0000 H       1  UNL1        0.0230
     42 H          11.1972   -7.3700    0.0000 H       1  UNL1        0.0230
     43 H          11.8172   -6.7500    0.0000 H       1  UNL1        0.0230
     44 H           8.2700    0.5600    0.0000 H       1  UNL1        0.0573
     45 H           5.3905    2.3577    0.0000 H       1  UNL1        0.0348
     46 H           5.7890    1.6674    0.0000 H       1  UNL1        0.0348
     47 H           6.3301    0.4400    0.0000 H       1  UNL1        0.0649
     48 H           6.6116    3.1423    0.0000 H       1  UNL1        0.0317
     49 H           6.2131    3.8326    0.0000 H       1  UNL1        0.0317
     50 H           5.6720    5.0600    0.0000 H       1  UNL1        0.0658
     51 H           4.2690    2.6300    0.0000 H       1  UNL1        0.0621
     52 H           2.8660    3.4400    0.0000 H       1  UNL1        0.0655
     53 H           2.0000    4.9400    0.0000 H       1  UNL1        0.2923
     54 H           5.4450    6.2131    0.0000 H       1  UNL1        0.0660
     55 H           5.6720    7.0600    0.0000 H       1  UNL1        0.0660
     56 H           4.8250    7.2869    0.0000 H       1  UNL1        0.0660
@<TRIPOS>BOND
     1     1    17    2
     2     2    21    1
     3     2    24    1
     4     3    23    1
     5     3    53    1
     6     4     5    1
     7     4     6    1
     8     4    25    1
     9     4    26    1
    10     5     7    1
    11     5    27    1
    12     5    28    1
    13     6     8    1
    14     6    29    1
    15     6    30    1
    16     7     9    1
    17     7    31    1
    18     7    32    1
    19     8    10    1
    20     8    33    1
    21     8    34    1
    22     9    11    1
    23     9    35    1
    24     9    36    1
    25    10    13    1
    26    10    37    1
    27    10    38    1
    28    11    12    1
    29    11    39    1
    30    11    40    1
    31    12    41    1
    32    12    42    1
    33    12    43    1
    34    13    14    2
    35    13    44    1
    36    14    17    1
    37    14    47    1
    38    15    16    1
    39    15    17    1
    40    15    45    1
    41    15    46    1
    42    16    18    1
    43    16    48    1
    44    16    49    1
    45    18    19   ar
    46    18    20   ar
    47    19    21   ar
    48    19    50    1
    49    20    22   ar
    50    20    51    1
    51    21    23   ar
    52    22    23   ar
    53    22    52    1
    54    24    54    1
    55    24    55    1
    56    24    56    1
