@<TRIPOS>MOLECULE
IMPHY002344
 27 29 0 0 0
SMALL
GASTEIGER

@<TRIPOS>ATOM
      1 O           3.2020   -0.1832    0.0000 O.3     1  UNL1       -0.3686
      2 O           4.5152    1.8030    0.0000 O.2     1  UNL1       -0.2761
      3 N           4.2017   -1.5629    0.0000 N.3     1  UNL1       -0.2925
      4 N           3.1139    0.7850    0.0000 N.am    1  UNL1       -0.3086
      5 C           3.3927   -0.9751    0.0000 C.3     1  UNL1        0.0575
      6 C           2.5900   -1.5615    0.0000 C.3     1  UNL1        0.0776
      7 C           3.7017   -0.0241    0.0000 C.3     1  UNL1        0.0683
      8 C           4.7017   -0.0241    0.0000 C.3     1  UNL1        0.0916
      9 C           5.0107   -0.9751    0.0000 C.3     1  UNL1        0.0274
     10 C           2.8980   -2.5067    0.0000 C.3     1  UNL1       -0.0122
     11 C           3.8921   -2.5075    0.0000 C.3     1  UNL1        0.0018
     12 C           3.5207    1.6985    0.0000 C.2     1  UNL1        0.2103
     13 C           2.9329    2.5075    0.0000 C.3     1  UNL1        0.0122
     14 H           2.5756   -0.7408    0.0000 H       1  UNL1        0.0507
     15 H           1.7811   -1.3002    0.0000 H       1  UNL1        0.0613
     16 H           3.9832    0.5284    0.0000 H       1  UNL1        0.0541
     17 H           5.2013    0.6636    0.0000 H       1  UNL1        0.0628
     18 H           5.3207   -1.5120    0.0000 H       1  UNL1        0.0453
     19 H           5.5771   -0.7229    0.0000 H       1  UNL1        0.0453
     20 H           2.2916   -2.6357    0.0000 H       1  UNL1        0.0303
     21 H           2.9626   -3.1233    0.0000 H       1  UNL1        0.0303
     22 H           3.8264   -3.1240    0.0000 H       1  UNL1        0.0427
     23 H           4.4983   -2.6376    0.0000 H       1  UNL1        0.0427
     24 H           2.4973    0.7202    0.0000 H       1  UNL1        0.1491
     25 H           3.4345    2.8720    0.0000 H       1  UNL1        0.0322
     26 H           2.5684    3.0091    0.0000 H       1  UNL1        0.0322
     27 H           2.4313    2.1431    0.0000 H       1  UNL1        0.0322
@<TRIPOS>BOND
     1     1     6    1
     2     1     8    1
     3     2    12    2
     4     3     5    1
     5     3     9    1
     6     3    11    1
     7     7     4    1
     8     4    12   am
     9     4    24    1
    10     5     6    1
    11     5     7    1
    12     5    14    1
    13     6    10    1
    14     6    15    1
    15     7     8    1
    16     7    16    1
    17     8     9    1
    18     8    17    1
    19     9    18    1
    20     9    19    1
    21    10    11    1
    22    10    20    1
    23    10    21    1
    24    11    22    1
    25    11    23    1
    26    12    13    1
    27    13    25    1
    28    13    26    1
    29    13    27    1
