@<TRIPOS>MOLECULE
IMPHY007746
 63 66 0 0 0
SMALL
GASTEIGER

@<TRIPOS>ATOM
      1 O           5.1350   -1.8696    0.0000 O.3     1  UNL1       -0.3313
      2 O           6.8671   -1.8696    0.0000 O.3     1  UNL1       -0.4569
      3 O           5.1350   -4.8696    0.0000 O.3     1  UNL1       -0.3864
      4 O           3.4030   -3.8696    0.0000 O.3     1  UNL1       -0.3865
      5 O           6.8671   -3.8696    0.0000 O.3     1  UNL1       -0.3829
      6 O           2.5369   -2.3696    0.0000 O.3     1  UNL1       -0.3924
      7 O           8.6230    1.1930    0.0000 O.2     1  UNL1       -0.4507
      8 O           5.0971   -0.8386    0.0000 O.3     1  UNL1       -0.4885
      9 O           5.1208    1.2096    0.0000 O.3     1  UNL1       -0.5027
     10 O           7.7666    3.6963    0.0000 O.3     1  UNL1       -0.4883
     11 O           6.0308    2.7030    0.0000 O.2     1  UNL1       -0.2830
     12 O          12.0987    4.1796    0.0000 O.3     1  UNL1       -0.4915
     13 O          12.0910    2.1796    0.0000 O.3     1  UNL1       -0.5033
     14 C           5.1350   -3.8696    0.0000 C.3     1  UNL1        0.1152
     15 C           4.2690   -3.3696    0.0000 C.3     1  UNL1        0.1120
     16 C           6.0010   -3.3696    0.0000 C.3     1  UNL1        0.1454
     17 C           4.2690   -2.3696    0.0000 C.3     1  UNL1        0.1140
     18 C           6.0010   -2.3696    0.0000 C.3     1  UNL1        0.2310
     19 C           3.4030   -1.8696    0.0000 C.3     1  UNL1        0.0731
     20 C           6.8671   -0.8696    0.0000 C.ar    1  UNL1        0.1726
     21 C           5.9670   -0.3453    0.0000 C.ar    1  UNL1        0.2044
     22 C           7.7671   -0.3453    0.0000 C.ar    1  UNL1        0.0271
     23 C           7.7551    0.6963    0.0000 C.ar    1  UNL1        0.1468
     24 C           6.8910    1.1996    0.0000 C.ar    1  UNL1        0.1128
     25 C           5.9790    0.6963    0.0000 C.ar    1  UNL1        0.1769
     26 C           6.8948    2.1996    0.0000 C.ar    1  UNL1        0.2382
     27 C           8.6269    2.1929    0.0000 C.ar    1  UNL1        0.1809
     28 C           7.7628    2.6963    0.0000 C.ar    1  UNL1        0.2107
     29 C           9.4948    2.6896    0.0000 C.ar    1  UNL1        0.0247
     30 C           4.2350   -0.3319    0.0000 C.3     1  UNL1        0.0791
     31 C          10.3589    2.1863    0.0000 C.ar    1  UNL1       -0.0057
     32 C           9.4987    3.6896    0.0000 C.ar    1  UNL1       -0.0473
     33 C          11.2269    2.6829    0.0000 C.ar    1  UNL1        0.1591
     34 C          10.3666    4.1862    0.0000 C.ar    1  UNL1       -0.0156
     35 C          11.2307    3.6829    0.0000 C.ar    1  UNL1        0.1613
     36 C           6.9026    4.1996    0.0000 C.3     1  UNL1        0.0791
     37 C          12.1025    5.1796    0.0000 C.3     1  UNL1        0.0790
     38 H           5.6720   -4.1796    0.0000 H       1  UNL1        0.0648
     39 H           4.2690   -3.9896    0.0000 H       1  UNL1        0.0647
     40 H           6.5380   -3.0596    0.0000 H       1  UNL1        0.0683
     41 H           4.2690   -1.7496    0.0000 H       1  UNL1        0.0647
     42 H           6.0010   -1.7496    0.0000 H       1  UNL1        0.1084
     43 H           3.8015   -1.3946    0.0000 H       1  UNL1        0.0584
     44 H           3.0044   -1.3946    0.0000 H       1  UNL1        0.0584
     45 H           4.5981   -5.1796    0.0000 H       1  UNL1        0.2100
     46 H           3.4030   -4.4896    0.0000 H       1  UNL1        0.2100
     47 H           6.8671   -4.4896    0.0000 H       1  UNL1        0.2102
     48 H           2.0000   -2.0596    0.0000 H       1  UNL1        0.2095
     49 H           8.3064   -0.6511    0.0000 H       1  UNL1        0.0692
     50 H           4.5792    0.9079    0.0000 H       1  UNL1        0.2923
     51 H           4.5491    0.2026    0.0000 H       1  UNL1        0.0660
     52 H           3.7005   -0.0178    0.0000 H       1  UNL1        0.0660
     53 H           3.9209   -0.8665    0.0000 H       1  UNL1        0.0660
     54 H          10.3565    1.5663    0.0000 H       1  UNL1        0.0662
     55 H           8.9630    4.0017    0.0000 H       1  UNL1        0.0626
     56 H          10.3690    4.8062    0.0000 H       1  UNL1        0.0655
     57 H           7.2146    4.7353    0.0000 H       1  UNL1        0.0660
     58 H           6.3668    4.5117    0.0000 H       1  UNL1        0.0660
     59 H           6.5905    3.6639    0.0000 H       1  UNL1        0.0660
     60 H          12.6291    2.4875    0.0000 H       1  UNL1        0.2923
     61 H          12.7225    5.1772    0.0000 H       1  UNL1        0.0660
     62 H          12.1049    5.7996    0.0000 H       1  UNL1        0.0660
     63 H          11.4825    5.1819    0.0000 H       1  UNL1        0.0660
@<TRIPOS>BOND
     1     1    17    1
     2     1    18    1
     3    18     2    1
     4     2    20    1
     5    14     3    1
     6     3    45    1
     7    15     4    1
     8     4    46    1
     9    16     5    1
    10     5    47    1
    11     6    19    1
    12     6    48    1
    13     7    23   ar
    14     7    27   ar
    15     8    21    1
    16     8    30    1
    17     9    25    1
    18     9    50    1
    19    10    28    1
    20    10    36    1
    21    11    26    2
    22    12    35    1
    23    12    37    1
    24    13    33    1
    25    13    60    1
    26    14    15    1
    27    14    16    1
    28    14    38    1
    29    15    17    1
    30    15    39    1
    31    16    18    1
    32    16    40    1
    33    17    19    1
    34    17    41    1
    35    18    42    1
    36    19    43    1
    37    19    44    1
    38    20    21   ar
    39    20    22   ar
    40    21    25   ar
    41    22    23   ar
    42    22    49    1
    43    23    24   ar
    44    24    25   ar
    45    24    26   ar
    46    26    28   ar
    47    27    28   ar
    48    27    29    1
    49    29    31   ar
    50    29    32   ar
    51    30    51    1
    52    30    52    1
    53    30    53    1
    54    31    33   ar
    55    31    54    1
    56    32    34   ar
    57    32    55    1
    58    33    35   ar
    59    34    35   ar
    60    34    56    1
    61    36    57    1
    62    36    58    1
    63    36    59    1
    64    37    61    1
    65    37    62    1
    66    37    63    1
