@<TRIPOS>MOLECULE
IMPHY010680
 71 76 0 0 0
SMALL
GASTEIGER

@<TRIPOS>ATOM
      1 O           8.2565   -0.7026    0.0000 O.3     1  UNL1       -0.3878
      2 O           4.9163    1.8904    0.0000 O.3     1  UNL1       -0.3912
      3 O           8.6327    1.6388    0.0000 O.3     1  UNL1       -0.4608
      4 O           9.0340    2.3483    0.0000 O.3     1  UNL1       -0.3793
      5 O           4.0503   -2.3448    0.0000 O.3     1  UNL1       -0.3824
      6 O           8.7880   -0.0862    0.0000 O.2     1  UNL1       -0.2512
      7 N           3.7210    0.0613    0.0000 N.3     1  UNL1       -0.2981
      8 C           5.6676    0.4566    0.0000 C.3     1  UNL1        0.0193
      9 C           5.6676   -0.4110    0.0000 C.3     1  UNL1       -0.0220
     10 C           6.3459    0.9975    0.0000 C.3     1  UNL1       -0.0220
     11 C           4.6656    0.3505    0.0000 C.3     1  UNL1        0.0244
     12 C           7.1918   -0.7589    0.0000 C.3     1  UNL1        0.0048
     13 C           7.1918    0.8044    0.0000 C.3     1  UNL1        0.0292
     14 C           7.5682    0.0228    0.0000 C.3     1  UNL1        0.0791
     15 C           6.3459   -0.9519    0.0000 C.3     1  UNL1       -0.0420
     16 C           4.9163   -0.8448    0.0000 C.3     1  UNL1        0.0104
     17 C           4.9163    0.8904    0.0000 C.3     1  UNL1        0.0628
     18 C           6.2682    1.8616    0.0000 C.3     1  UNL1       -0.0405
     19 C           7.0659    2.2026    0.0000 C.3     1  UNL1        0.0231
     20 C           7.6367    1.5492    0.0000 C.3     1  UNL1        0.1139
     21 C           8.2131    0.2927    0.0000 C.3     1  UNL1        0.0034
     22 C           3.7210   -0.6906    0.0000 C.3     1  UNL1        0.0072
     23 C           4.1649   -0.4110    0.0000 C.3     1  UNL1       -0.0415
     24 C           8.2131    1.7772    0.0000 C.3     1  UNL1        0.0671
     25 C           4.1649    0.4566    0.0000 C.3     1  UNL1       -0.0256
     26 C           4.9163   -1.8448    0.0000 C.3     1  UNL1        0.0544
     27 C           2.9170    0.6560    0.0000 C.3     1  UNL1       -0.0036
     28 C           2.0000    0.2571    0.0000 C.3     1  UNL1       -0.0523
     29 C           9.2083    0.8211    0.0000 C.2     1  UNL1        0.3042
     30 C           8.9498    3.3448    0.0000 C.3     1  UNL1        0.0368
     31 C           4.0503   -3.3448    0.0000 C.3     1  UNL1        0.0365
     32 C          10.2043    0.9108    0.0000 C.3     1  UNL1        0.0332
     33 H           5.6041   -1.2586    0.0000 H       1  UNL1        0.0314
     34 H           5.5643    1.3316    0.0000 H       1  UNL1        0.0312
     35 H           4.4957    1.1834    0.0000 H       1  UNL1        0.0473
     36 H           7.3184   -1.5994    0.0000 H       1  UNL1        0.0344
     37 H           8.0409    0.7663    0.0000 H       1  UNL1        0.0367
     38 H           5.8612   -1.3385    0.0000 H       1  UNL1        0.0272
     39 H           6.6149   -1.5105    0.0000 H       1  UNL1        0.0272
     40 H           5.4532    1.2004    0.0000 H       1  UNL1        0.0599
     41 H           6.0854    2.4540    0.0000 H       1  UNL1        0.0273
     42 H           5.6598    1.7418    0.0000 H       1  UNL1        0.0273
     43 H           7.0452    3.0523    0.0000 H       1  UNL1        0.0362
     44 H           7.8676    2.1246    0.0000 H       1  UNL1        0.0741
     45 H           8.3750   -0.3058    0.0000 H       1  UNL1        0.0318
     46 H           8.8277    0.3744    0.0000 H       1  UNL1        0.0318
     47 H           3.1015   -0.6640    0.0000 H       1  UNL1        0.0433
     48 H           3.6680   -1.3083    0.0000 H       1  UNL1        0.0433
     49 H           3.5544   -0.3033    0.0000 H       1  UNL1        0.0273
     50 H           3.9529   -0.9936    0.0000 H       1  UNL1        0.0273
     51 H           8.1349    2.3923    0.0000 H       1  UNL1        0.0601
     52 H           3.9529    1.0392    0.0000 H       1  UNL1        0.0290
     53 H           3.5544    0.3489    0.0000 H       1  UNL1        0.0290
     54 H           5.1283   -2.4274    0.0000 H       1  UNL1        0.0566
     55 H           5.5269   -1.7371    0.0000 H       1  UNL1        0.0566
     56 H           8.4013   -1.3055    0.0000 H       1  UNL1        0.2102
     57 H           3.3666    1.0829    0.0000 H       1  UNL1        0.0424
     58 H           2.5747    1.1730    0.0000 H       1  UNL1        0.0424
     59 H           4.3793    2.2004    0.0000 H       1  UNL1        0.2098
     60 H           1.7527    0.8256    0.0000 H       1  UNL1        0.0242
     61 H           1.4315    0.0098    0.0000 H       1  UNL1        0.0242
     62 H           2.2473   -0.3114    0.0000 H       1  UNL1        0.0242
     63 H           9.5676    3.3970    0.0000 H       1  UNL1        0.0524
     64 H           8.8976    3.9626    0.0000 H       1  UNL1        0.0524
     65 H           8.3320    3.2926    0.0000 H       1  UNL1        0.0524
     66 H           3.4303   -3.3448    0.0000 H       1  UNL1        0.0523
     67 H           4.0503   -3.9648    0.0000 H       1  UNL1        0.0523
     68 H           4.6703   -3.3448    0.0000 H       1  UNL1        0.0523
     69 H          10.2599    0.2933    0.0000 H       1  UNL1        0.0342
     70 H          10.8218    0.9664    0.0000 H       1  UNL1        0.0342
     71 H          10.1487    1.5283    0.0000 H       1  UNL1        0.0342
@<TRIPOS>BOND
     1    14     1    1
     2     1    56    1
     3    17     2    1
     4     2    59    1
     5    20     3    1
     6     3    29    1
     7    24     4    1
     8     4    30    1
     9     5    26    1
    10     5    31    1
    11     6    29    2
    12     7    11    1
    13     7    22    1
    14     7    27    1
    15     8     9    1
    16     8    10    1
    17     8    11    1
    18     8    17    1
    19     9    15    1
    20     9    16    1
    21     9    33    1
    22    10    13    1
    23    10    18    1
    24    10    34    1
    25    11    12    1
    26    11    35    1
    27    12    14    1
    28    12    15    1
    29    12    36    1
    30    13    14    1
    31    13    20    1
    32    13    37    1
    33    14    21    1
    34    15    38    1
    35    15    39    1
    36    16    22    1
    37    16    23    1
    38    16    26    1
    39    17    25    1
    40    17    40    1
    41    18    19    1
    42    18    41    1
    43    18    42    1
    44    19    20    1
    45    19    24    1
    46    19    43    1
    47    20    44    1
    48    21    24    1
    49    21    45    1
    50    21    46    1
    51    22    47    1
    52    22    48    1
    53    23    25    1
    54    23    49    1
    55    23    50    1
    56    24    51    1
    57    25    52    1
    58    25    53    1
    59    26    54    1
    60    26    55    1
    61    27    28    1
    62    27    57    1
    63    27    58    1
    64    28    60    1
    65    28    61    1
    66    28    62    1
    67    29    32    1
    68    30    63    1
    69    30    64    1
    70    30    65    1
    71    31    66    1
    72    31    67    1
    73    31    68    1
    74    32    69    1
    75    32    70    1
    76    32    71    1
