@<TRIPOS>MOLECULE
IMPHY014916
 24 24 0 0 0
SMALL
GASTEIGER

@<TRIPOS>ATOM
      1 O           5.1350   -0.0205    0.0000 O.3     1  UNL1       -0.3421
      2 O           2.5369   -0.5205    0.0000 O.3     1  UNL1       -0.3837
      3 O           4.7690   -1.3865    0.0000 O.3     1  UNL1       -0.3609
      4 O           2.5369    1.4795    0.0000 O.3     1  UNL1       -0.3864
      5 O           4.2690    2.4795    0.0000 O.3     1  UNL1       -0.3869
      6 O           4.2690   -2.2526    0.0000 O.3     1  UNL1       -0.3896
      7 C           3.4030   -0.0205    0.0000 C.3     1  UNL1        0.1392
      8 C           4.2690   -0.5205    0.0000 C.3     1  UNL1        0.2201
      9 C           3.4030    0.9795    0.0000 C.3     1  UNL1        0.1141
     10 C           4.2690    1.4795    0.0000 C.3     1  UNL1        0.1070
     11 C           5.1350    0.9795    0.0000 C.3     1  UNL1        0.0795
     12 C           3.7690   -1.3865    0.0000 C.3     1  UNL1        0.1006
     13 H           3.4030   -0.6405    0.0000 H       1  UNL1        0.0675
     14 H           3.4030    1.5995    0.0000 H       1  UNL1        0.0648
     15 H           4.8059    1.7895    0.0000 H       1  UNL1        0.0643
     16 H           5.7456    0.8718    0.0000 H       1  UNL1        0.0587
     17 H           5.3471    1.5621    0.0000 H       1  UNL1        0.0587
     18 H           3.2940   -0.9880    0.0000 H       1  UNL1        0.0612
     19 H           3.2940   -1.7851    0.0000 H       1  UNL1        0.0612
     20 H           2.0000   -0.2105    0.0000 H       1  UNL1        0.2101
     21 H           5.3890   -1.3865    0.0000 H       1  UNL1        0.2129
     22 H           2.5369    2.0995    0.0000 H       1  UNL1        0.2100
     23 H           4.8059    2.7895    0.0000 H       1  UNL1        0.2100
     24 H           3.9590   -2.7895    0.0000 H       1  UNL1        0.2096
@<TRIPOS>BOND
     1     1     8    1
     2     1    11    1
     3     7     2    1
     4     2    20    1
     5     3     8    1
     6     3    21    1
     7     9     4    1
     8     4    22    1
     9    10     5    1
    10     5    23    1
    11     6    12    1
    12     6    24    1
    13     7     8    1
    14     7     9    1
    15     7    13    1
    16     8    12    1
    17     9    10    1
    18     9    14    1
    19    10    11    1
    20    10    15    1
    21    11    16    1
    22    11    17    1
    23    12    18    1
    24    12    19    1
