@<TRIPOS>MOLECULE
IMPHY007031
 42 43 0 0 0
SMALL
GASTEIGER

@<TRIPOS>ATOM
      1 O           4.5981    0.6276    0.0000 O.3     1  UNL1       -0.3877
      2 C           4.5981   -0.3724    0.0000 C.3     1  UNL1        0.0756
      3 C           4.5981   -1.3724    0.0000 C.3     1  UNL1       -0.0090
      4 C           5.5443   -1.6771    0.0000 C.3     1  UNL1       -0.0383
      5 C           3.7320    0.1276    0.0000 C.3     1  UNL1        0.0090
      6 C           5.5443   -0.0676    0.0000 C.3     1  UNL1       -0.0229
      7 C           3.7320   -1.8724    0.0000 C.3     1  UNL1       -0.0471
      8 C           2.8660   -0.3724    0.0000 C.3     1  UNL1       -0.0350
      9 C           6.1279   -0.8724    0.0000 C.3     1  UNL1       -0.0475
     10 C           2.8660   -1.3724    0.0000 C.3     1  UNL1       -0.0495
     11 C           5.8550   -2.6276    0.0000 C.3     1  UNL1       -0.0621
     12 C           3.7320    1.1276    0.0000 C.2     1  UNL1       -0.0792
     13 C           2.0000    0.1276    0.0000 C.3     1  UNL1       -0.0618
     14 C           2.8660    1.6276    0.0000 C.2     1  UNL1       -0.0793
     15 C           2.8660    2.6276    0.0000 C.3     1  UNL1       -0.0440
     16 C           2.0000    1.1276    0.0000 C.3     1  UNL1       -0.0440
     17 H           4.6637   -1.9889    0.0000 H       1  UNL1        0.0331
     18 H           5.1068   -2.1165    0.0000 H       1  UNL1        0.0302
     19 H           3.1951    0.4376    0.0000 H       1  UNL1        0.0374
     20 H           6.0817    0.2416    0.0000 H       1  UNL1        0.0293
     21 H           5.2933    0.4993    0.0000 H       1  UNL1        0.0293
     22 H           3.3335   -2.3473    0.0000 H       1  UNL1        0.0269
     23 H           4.1306   -2.3473    0.0000 H       1  UNL1        0.0269
     24 H           3.4030   -0.6824    0.0000 H       1  UNL1        0.0305
     25 H           6.5888   -1.2871    0.0000 H       1  UNL1        0.0269
     26 H           6.5888   -0.4576    0.0000 H       1  UNL1        0.0269
     27 H           2.2554   -1.2647    0.0000 H       1  UNL1        0.0268
     28 H           2.6540   -1.9550    0.0000 H       1  UNL1        0.0268
     29 H           5.2656   -2.8202    0.0000 H       1  UNL1        0.0233
     30 H           6.0476   -3.2170    0.0000 H       1  UNL1        0.0233
     31 H           6.4443   -2.4350    0.0000 H       1  UNL1        0.0233
     32 H           4.2690    1.4376    0.0000 H       1  UNL1        0.0575
     33 H           5.1350    0.9376    0.0000 H       1  UNL1        0.2102
     34 H           2.3100    0.6646    0.0000 H       1  UNL1        0.0233
     35 H           1.4631    0.4376    0.0000 H       1  UNL1        0.0233
     36 H           1.6900   -0.4093    0.0000 H       1  UNL1        0.0233
     37 H           1.6900    1.6646    0.0000 H       1  UNL1        0.0274
     38 H           1.4631    0.8176    0.0000 H       1  UNL1        0.0274
     39 H           2.3100    0.5907    0.0000 H       1  UNL1        0.0274
     40 H           3.4860    2.6276    0.0000 H       1  UNL1        0.0274
     41 H           2.8660    3.2476    0.0000 H       1  UNL1        0.0274
     42 H           2.2460    2.6276    0.0000 H       1  UNL1        0.0274
@<TRIPOS>BOND
     1     1     2    1
     2     1    33    1
     3     2     3    1
     4     2     5    1
     5     2     6    1
     6     3     4    1
     7     3     7    1
     8     3    17    1
     9     4     9    1
    10     4    11    1
    11     4    18    1
    12     5     8    1
    13     5    12    1
    14     5    19    1
    15     6     9    1
    16     6    20    1
    17     6    21    1
    18     7    10    1
    19     7    22    1
    20     7    23    1
    21     8    10    1
    22     8    13    1
    23     8    24    1
    24     9    25    1
    25     9    26    1
    26    10    27    1
    27    10    28    1
    28    11    29    1
    29    11    30    1
    30    11    31    1
    31    12    14    2
    32    12    32    1
    33    13    34    1
    34    13    35    1
    35    13    36    1
    36    14    15    1
    37    14    16    1
    38    15    40    1
    39    15    41    1
    40    15    42    1
    41    16    37    1
    42    16    38    1
    43    16    39    1
