@<TRIPOS>MOLECULE
IMPHY013781
 40 39 0 0 0
SMALL
GASTEIGER

@<TRIPOS>ATOM
      1 N          12.3923    0.0600    0.0000 N.3     1  UNL1       -0.3300
      2 C           7.1962    0.0600    0.0000 C.3     1  UNL1       -0.0531
      3 C           6.3301    0.5600    0.0000 C.3     1  UNL1       -0.0531
      4 C           8.0622    0.5600    0.0000 C.3     1  UNL1       -0.0531
      5 C           5.4641    0.0600    0.0000 C.3     1  UNL1       -0.0531
      6 C           8.9282    0.0600    0.0000 C.3     1  UNL1       -0.0530
      7 C           4.5981    0.5600    0.0000 C.3     1  UNL1       -0.0531
      8 C           9.7942    0.5600    0.0000 C.3     1  UNL1       -0.0519
      9 C           3.7320    0.0600    0.0000 C.3     1  UNL1       -0.0533
     10 C          10.6603    0.0600    0.0000 C.3     1  UNL1       -0.0406
     11 C           2.8660    0.5600    0.0000 C.3     1  UNL1       -0.0559
     12 C          11.5263    0.5600    0.0000 C.3     1  UNL1       -0.0069
     13 C           2.0000    0.0600    0.0000 C.3     1  UNL1       -0.0653
     14 H           6.7976   -0.4149    0.0000 H       1  UNL1        0.0265
     15 H           7.5947   -0.4149    0.0000 H       1  UNL1        0.0265
     16 H           6.7287    1.0350    0.0000 H       1  UNL1        0.0265
     17 H           5.9316    1.0350    0.0000 H       1  UNL1        0.0265
     18 H           8.4607    1.0350    0.0000 H       1  UNL1        0.0265
     19 H           7.6636    1.0350    0.0000 H       1  UNL1        0.0265
     20 H           5.0656   -0.4149    0.0000 H       1  UNL1        0.0265
     21 H           5.8626   -0.4149    0.0000 H       1  UNL1        0.0265
     22 H           8.5297   -0.4149    0.0000 H       1  UNL1        0.0265
     23 H           9.3267   -0.4149    0.0000 H       1  UNL1        0.0265
     24 H           4.9966    1.0350    0.0000 H       1  UNL1        0.0265
     25 H           4.1996    1.0350    0.0000 H       1  UNL1        0.0265
     26 H          10.1928    1.0350    0.0000 H       1  UNL1        0.0266
     27 H           9.3957    1.0350    0.0000 H       1  UNL1        0.0266
     28 H           3.3335   -0.4149    0.0000 H       1  UNL1        0.0265
     29 H           4.1306   -0.4149    0.0000 H       1  UNL1        0.0265
     30 H          10.2617   -0.4149    0.0000 H       1  UNL1        0.0277
     31 H          11.0588   -0.4149    0.0000 H       1  UNL1        0.0277
     32 H           3.2646    1.0350    0.0000 H       1  UNL1        0.0263
     33 H           2.4675    1.0350    0.0000 H       1  UNL1        0.0263
     34 H          11.9248    1.0350    0.0000 H       1  UNL1        0.0422
     35 H          11.1278    1.0350    0.0000 H       1  UNL1        0.0422
     36 H           1.6900    0.5969    0.0000 H       1  UNL1        0.0230
     37 H           1.4631   -0.2500    0.0000 H       1  UNL1        0.0230
     38 H           2.3100   -0.4769    0.0000 H       1  UNL1        0.0230
     39 H          12.9292    0.3700    0.0000 H       1  UNL1        0.1182
     40 H          12.3923   -0.5600    0.0000 H       1  UNL1        0.1182
@<TRIPOS>BOND
     1     1    12    1
     2     1    39    1
     3     1    40    1
     4     2     3    1
     5     2     4    1
     6     2    14    1
     7     2    15    1
     8     3     5    1
     9     3    16    1
    10     3    17    1
    11     4     6    1
    12     4    18    1
    13     4    19    1
    14     5     7    1
    15     5    20    1
    16     5    21    1
    17     6     8    1
    18     6    22    1
    19     6    23    1
    20     7     9    1
    21     7    24    1
    22     7    25    1
    23     8    10    1
    24     8    26    1
    25     8    27    1
    26     9    11    1
    27     9    28    1
    28     9    29    1
    29    10    12    1
    30    10    30    1
    31    10    31    1
    32    11    13    1
    33    11    32    1
    34    11    33    1
    35    12    34    1
    36    12    35    1
    37    13    36    1
    38    13    37    1
    39    13    38    1
