@<TRIPOS>MOLECULE
IMPHY015265
 27 27 0 0 0
SMALL
GASTEIGER

@<TRIPOS>ATOM
      1 O           2.8090    0.8674    0.0000 O.2     1  UNL1       -0.4678
      2 C           5.7281   -0.1410    0.0000 C.3     1  UNL1       -0.0527
      3 C           4.7770    0.1681    0.0000 C.3     1  UNL1       -0.0462
      4 C           5.9360   -1.1191    0.0000 C.3     1  UNL1       -0.0533
      5 C           4.5691    1.1462    0.0000 C.3     1  UNL1        0.0055
      6 C           6.8870   -1.4281    0.0000 C.3     1  UNL1       -0.0559
      7 C           3.6180    1.4552    0.0000 C.ar    1  UNL1        0.1049
      8 C           7.0949   -2.4063    0.0000 C.3     1  UNL1       -0.0653
      9 C           3.3090    2.4063    0.0000 C.ar    1  UNL1       -0.0207
     10 C           2.3090    2.4063    0.0000 C.ar    1  UNL1       -0.0237
     11 C           2.0000    1.4552    0.0000 C.ar    1  UNL1        0.0921
     12 H           6.3477   -0.1193    0.0000 H       1  UNL1        0.0265
     13 H           5.8144    0.4730    0.0000 H       1  UNL1        0.0265
     14 H           4.1574    0.1464    0.0000 H       1  UNL1        0.0269
     15 H           4.6907   -0.4459    0.0000 H       1  UNL1        0.0269
     16 H           5.3164   -1.1408    0.0000 H       1  UNL1        0.0265
     17 H           5.8497   -1.7331    0.0000 H       1  UNL1        0.0265
     18 H           5.1887    1.1678    0.0000 H       1  UNL1        0.0343
     19 H           4.6554    1.7602    0.0000 H       1  UNL1        0.0343
     20 H           7.5066   -1.4065    0.0000 H       1  UNL1        0.0263
     21 H           6.9733   -0.8142    0.0000 H       1  UNL1        0.0263
     22 H           6.4885   -2.5352    0.0000 H       1  UNL1        0.0230
     23 H           7.2238   -3.0127    0.0000 H       1  UNL1        0.0230
     24 H           7.7014   -2.2774    0.0000 H       1  UNL1        0.0230
     25 H           3.6734    2.9079    0.0000 H       1  UNL1        0.0652
     26 H           1.9446    2.9079    0.0000 H       1  UNL1        0.0649
     27 H           1.4103    1.2636    0.0000 H       1  UNL1        0.1029
@<TRIPOS>BOND
     1     1     7   ar
     2     1    11   ar
     3     2     3    1
     4     2     4    1
     5     2    12    1
     6     2    13    1
     7     3     5    1
     8     3    14    1
     9     3    15    1
    10     4     6    1
    11     4    16    1
    12     4    17    1
    13     5     7    1
    14     5    18    1
    15     5    19    1
    16     6     8    1
    17     6    20    1
    18     6    21    1
    19     7     9   ar
    20     8    22    1
    21     8    23    1
    22     8    24    1
    23     9    10   ar
    24     9    25    1
    25    10    11   ar
    26    10    26    1
    27    11    27    1
