@<TRIPOS>MOLECULE
IMPHY004652
 21 22 0 0 0
SMALL
GASTEIGER

@<TRIPOS>ATOM
      1 O           4.6260   -0.3020    0.0000 O.2     1  UNL1       -0.4184
      2 O           2.8660   -1.2673    0.0000 O.3     1  UNL1       -0.4914
      3 O           6.3961   -0.2915    0.0000 O.2     1  UNL1       -0.2452
      4 C           3.7320    1.2327    0.0000 C.ar    1  UNL1        0.0213
      5 C           3.7320    0.2327    0.0000 C.ar    1  UNL1        0.1804
      6 C           2.8660   -0.2673    0.0000 C.ar    1  UNL1        0.1628
      7 C           2.8660    1.7327    0.0000 C.ar    1  UNL1       -0.0508
      8 C           4.6260    1.7673    0.0000 C.ar    1  UNL1       -0.0442
      9 C           2.0000    0.2327    0.0000 C.ar    1  UNL1       -0.0162
     10 C           2.0000    1.2327    0.0000 C.ar    1  UNL1       -0.0575
     11 C           5.5321    1.2535    0.0000 C.ar    1  UNL1        0.0236
     12 C           5.5321    0.2119    0.0000 C.ar    1  UNL1        0.3373
     13 C           2.0000   -1.7673    0.0000 C.3     1  UNL1        0.0790
     14 H           2.8660    2.3527    0.0000 H       1  UNL1        0.0625
     15 H           4.6188    2.3873    0.0000 H       1  UNL1        0.0627
     16 H           1.4631   -0.0773    0.0000 H       1  UNL1        0.0655
     17 H           1.4631    1.5427    0.0000 H       1  UNL1        0.0619
     18 H           6.0678    1.5656    0.0000 H       1  UNL1        0.0689
     19 H           1.6900   -1.2304    0.0000 H       1  UNL1        0.0660
     20 H           1.4631   -2.0773    0.0000 H       1  UNL1        0.0660
     21 H           2.3100   -2.3043    0.0000 H       1  UNL1        0.0660
@<TRIPOS>BOND
     1     1     5   ar
     2     1    12   ar
     3     2     6    1
     4     2    13    1
     5     3    12    2
     6     4     5   ar
     7     4     7   ar
     8     4     8   ar
     9     5     6   ar
    10     6     9   ar
    11     7    10   ar
    12     7    14    1
    13     8    11   ar
    14     8    15    1
    15     9    10   ar
    16     9    16    1
    17    10    17    1
    18    11    12   ar
    19    11    18    1
    20    13    19    1
    21    13    20    1
    22    13    21    1
