@<TRIPOS>MOLECULE
IMPHY011662
 100 101 0 0 0
SMALL
GASTEIGER

@<TRIPOS>ATOM
      1 O          11.5984    7.6536    0.0000 O.3     1  UNL1       -0.3682
      2 O          13.0358   -7.6536    0.0000 O.3     1  UNL1       -0.4542
      3 O          14.7959   -7.3748    0.0000 O.2     1  UNL1       -0.2453
      4 C          11.4938    6.6591    0.0000 C.3     1  UNL1        0.0852
      5 C          12.4074    7.0658    0.0000 C.3     1  UNL1        0.0855
      6 C          10.9061    5.8500    0.0000 C.3     1  UNL1       -0.0241
      7 C          13.4019    6.9613    0.0000 C.3     1  UNL1       -0.0207
      8 C           9.9115    5.9546    0.0000 C.3     1  UNL1       -0.0506
      9 C          13.8086    6.0477    0.0000 C.3     1  UNL1       -0.0323
     10 C           9.3238    5.1456    0.0000 C.3     1  UNL1       -0.0530
     11 C           8.3292    5.2501    0.0000 C.3     1  UNL1       -0.0531
     12 C           7.7414    4.4411    0.0000 C.3     1  UNL1       -0.0531
     13 C          14.8032    5.9432    0.0000 C.2     1  UNL1       -0.0878
     14 C           6.7469    4.5456    0.0000 C.3     1  UNL1       -0.0531
     15 C           6.1591    3.7366    0.0000 C.3     1  UNL1       -0.0531
     16 C          15.2099    5.0296    0.0000 C.2     1  UNL1       -0.0879
     17 C          14.6221    4.2206    0.0000 C.3     1  UNL1       -0.0348
     18 C           5.1646    3.8411    0.0000 C.3     1  UNL1       -0.0531
     19 C          15.0289    3.3071    0.0000 C.3     1  UNL1       -0.0496
     20 C          14.4411    2.4981    0.0000 C.3     1  UNL1       -0.0528
     21 C          14.8478    1.5845    0.0000 C.3     1  UNL1       -0.0530
     22 C           4.5768    3.0321    0.0000 C.3     1  UNL1       -0.0531
     23 C          14.2600    0.7755    0.0000 C.3     1  UNL1       -0.0531
     24 C          14.6668   -0.1380    0.0000 C.3     1  UNL1       -0.0531
     25 C          14.0790   -0.9471    0.0000 C.3     1  UNL1       -0.0531
     26 C          14.4857   -1.8606    0.0000 C.3     1  UNL1       -0.0531
     27 C          13.8979   -2.6696    0.0000 C.3     1  UNL1       -0.0530
     28 C           3.5823    3.1366    0.0000 C.3     1  UNL1       -0.0533
     29 C          14.3047   -3.5832    0.0000 C.3     1  UNL1       -0.0528
     30 C          13.7169   -4.3922    0.0000 C.3     1  UNL1       -0.0488
     31 C           2.9945    2.3276    0.0000 C.3     1  UNL1       -0.0559
     32 C          14.1236   -5.3057    0.0000 C.3     1  UNL1       -0.0211
     33 C          13.5358   -6.1147    0.0000 C.2     1  UNL1        0.0361
     34 C           2.0000    2.4321    0.0000 C.3     1  UNL1       -0.0653
     35 C          12.5358   -6.1147    0.0000 C.2     1  UNL1       -0.0343
     36 C          12.2268   -7.0658    0.0000 C.3     1  UNL1        0.1195
     37 C          13.8448   -7.0658    0.0000 C.2     1  UNL1        0.3355
     38 C          11.2758   -7.3748    0.0000 C.3     1  UNL1       -0.0240
     39 H          10.9150    6.8812    0.0000 H       1  UNL1        0.0622
     40 H          12.6296    7.6446    0.0000 H       1  UNL1        0.0622
     41 H          10.7352    5.2541    0.0000 H       1  UNL1        0.0291
     42 H          11.4633    5.5782    0.0000 H       1  UNL1        0.0291
     43 H          14.0035    7.1113    0.0000 H       1  UNL1        0.0294
     44 H          13.3587    7.5798    0.0000 H       1  UNL1        0.0294
     45 H          10.0824    6.5506    0.0000 H       1  UNL1        0.0266
     46 H           9.3543    6.2264    0.0000 H       1  UNL1        0.0266
     47 H          13.2071    5.8977    0.0000 H       1  UNL1        0.0308
     48 H          13.8519    5.4292    0.0000 H       1  UNL1        0.0308
     49 H           9.1529    4.5496    0.0000 H       1  UNL1        0.0265
     50 H           9.8810    4.8738    0.0000 H       1  UNL1        0.0265
     51 H           8.5001    5.8461    0.0000 H       1  UNL1        0.0265
     52 H           7.7720    5.5219    0.0000 H       1  UNL1        0.0265
     53 H           7.5706    3.8451    0.0000 H       1  UNL1        0.0265
     54 H           8.2987    4.1693    0.0000 H       1  UNL1        0.0265
     55 H          15.1676    6.4448    0.0000 H       1  UNL1        0.0569
     56 H           6.9178    5.1416    0.0000 H       1  UNL1        0.0265
     57 H           6.1897    4.8174    0.0000 H       1  UNL1        0.0265
     58 H           5.9882    3.1406    0.0000 H       1  UNL1        0.0265
     59 H           6.7164    3.4648    0.0000 H       1  UNL1        0.0265
     60 H          15.8265    4.9648    0.0000 H       1  UNL1        0.0569
     61 H          14.1914    4.6666    0.0000 H       1  UNL1        0.0307
     62 H          14.1081    3.8739    0.0000 H       1  UNL1        0.0307
     63 H           5.3355    4.4371    0.0000 H       1  UNL1        0.0265
     64 H           4.6074    4.1129    0.0000 H       1  UNL1        0.0265
     65 H          15.4595    2.8611    0.0000 H       1  UNL1        0.0268
     66 H          15.5429    3.6538    0.0000 H       1  UNL1        0.0268
     67 H          14.0104    2.9441    0.0000 H       1  UNL1        0.0265
     68 H          13.9271    2.1514    0.0000 H       1  UNL1        0.0265
     69 H          15.2785    1.1385    0.0000 H       1  UNL1        0.0265
     70 H          15.3618    1.9312    0.0000 H       1  UNL1        0.0265
     71 H           4.4059    2.4361    0.0000 H       1  UNL1        0.0265
     72 H           5.1341    2.7603    0.0000 H       1  UNL1        0.0265
     73 H          13.8293    1.2215    0.0000 H       1  UNL1        0.0265
     74 H          13.7460    0.4288    0.0000 H       1  UNL1        0.0265
     75 H          15.0974   -0.5840    0.0000 H       1  UNL1        0.0265
     76 H          15.1808    0.2087    0.0000 H       1  UNL1        0.0265
     77 H          13.6483   -0.5011    0.0000 H       1  UNL1        0.0265
     78 H          13.5650   -1.2938    0.0000 H       1  UNL1        0.0265
     79 H          14.9164   -2.3066    0.0000 H       1  UNL1        0.0265
     80 H          14.9997   -1.5139    0.0000 H       1  UNL1        0.0265
     81 H          13.4672   -2.2236    0.0000 H       1  UNL1        0.0265
     82 H          13.3839   -3.0163    0.0000 H       1  UNL1        0.0265
     83 H           3.7532    3.7326    0.0000 H       1  UNL1        0.0265
     84 H           3.0250    3.4084    0.0000 H       1  UNL1        0.0265
     85 H          14.7354   -4.0291    0.0000 H       1  UNL1        0.0265
     86 H          14.8187   -3.2365    0.0000 H       1  UNL1        0.0265
     87 H          13.2862   -3.9462    0.0000 H       1  UNL1        0.0268
     88 H          13.2029   -4.7389    0.0000 H       1  UNL1        0.0268
     89 H           2.8236    1.7316    0.0000 H       1  UNL1        0.0263
     90 H           3.5518    2.0558    0.0000 H       1  UNL1        0.0263
     91 H          14.5543   -5.7517    0.0000 H       1  UNL1        0.0315
     92 H          14.6376   -4.9590    0.0000 H       1  UNL1        0.0315
     93 H           2.0648    3.0487    0.0000 H       1  UNL1        0.0230
     94 H           1.3834    2.4969    0.0000 H       1  UNL1        0.0230
     95 H           1.9352    1.8155    0.0000 H       1  UNL1        0.0230
     96 H          12.1714   -5.6132    0.0000 H       1  UNL1        0.0613
     97 H          12.1298   -7.6782    0.0000 H       1  UNL1        0.0777
     98 H          11.0842   -6.7852    0.0000 H       1  UNL1        0.0268
     99 H          10.6861   -7.5664    0.0000 H       1  UNL1        0.0268
    100 H          11.4673   -7.9645    0.0000 H       1  UNL1        0.0268
@<TRIPOS>BOND
     1     1     4    1
     2     1     5    1
     3     2    36    1
     4     2    37    1
     5     3    37    2
     6     4     5    1
     7     4     6    1
     8     4    39    1
     9     5     7    1
    10     5    40    1
    11     6     8    1
    12     6    41    1
    13     6    42    1
    14     7     9    1
    15     7    43    1
    16     7    44    1
    17     8    10    1
    18     8    45    1
    19     8    46    1
    20     9    13    1
    21     9    47    1
    22     9    48    1
    23    10    11    1
    24    10    49    1
    25    10    50    1
    26    11    12    1
    27    11    51    1
    28    11    52    1
    29    12    14    1
    30    12    53    1
    31    12    54    1
    32    13    16    2
    33    13    55    1
    34    14    15    1
    35    14    56    1
    36    14    57    1
    37    15    18    1
    38    15    58    1
    39    15    59    1
    40    16    17    1
    41    16    60    1
    42    17    19    1
    43    17    61    1
    44    17    62    1
    45    18    22    1
    46    18    63    1
    47    18    64    1
    48    19    20    1
    49    19    65    1
    50    19    66    1
    51    20    21    1
    52    20    67    1
    53    20    68    1
    54    21    23    1
    55    21    69    1
    56    21    70    1
    57    22    28    1
    58    22    71    1
    59    22    72    1
    60    23    24    1
    61    23    73    1
    62    23    74    1
    63    24    25    1
    64    24    75    1
    65    24    76    1
    66    25    26    1
    67    25    77    1
    68    25    78    1
    69    26    27    1
    70    26    79    1
    71    26    80    1
    72    27    29    1
    73    27    81    1
    74    27    82    1
    75    28    31    1
    76    28    83    1
    77    28    84    1
    78    29    30    1
    79    29    85    1
    80    29    86    1
    81    30    32    1
    82    30    87    1
    83    30    88    1
    84    31    34    1
    85    31    89    1
    86    31    90    1
    87    32    33    1
    88    32    91    1
    89    32    92    1
    90    33    35    2
    91    33    37    1
    92    34    93    1
    93    34    94    1
    94    34    95    1
    95    35    36    1
    96    35    96    1
    97    36    38    1
    98    36    97    1
    99    38    98    1
   100    38    99    1
   101    38   100    1
