@<TRIPOS>MOLECULE
IMPHY012706
 25 27 0 0 0
SMALL
GASTEIGER

@<TRIPOS>ATOM
      1 N           3.7702    0.2674    0.0000 N.ar    1  UNL1       -0.2497
      2 N           5.5141    1.2742    0.0000 N.ar    1  UNL1       -0.2528
      3 C           4.6641   -0.2673    0.0000 C.ar    1  UNL1        0.0971
      4 C           4.6641   -1.2673    0.0000 C.ar    1  UNL1        0.0025
      5 C           5.5301    0.2327    0.0000 C.ar    1  UNL1        0.0968
      6 C           6.3961   -0.2673    0.0000 C.ar    1  UNL1        0.0025
      7 C           5.5301   -1.7673    0.0000 C.ar    1  UNL1       -0.0519
      8 C           6.3961   -1.2673    0.0000 C.ar    1  UNL1       -0.0519
      9 C           3.7702   -1.8020    0.0000 C.ar    1  UNL1       -0.0508
     10 C           2.8641   -0.2465    0.0000 C.ar    1  UNL1        0.0390
     11 C           2.8641   -1.2881    0.0000 C.ar    1  UNL1       -0.0401
     12 C           7.3062    0.2395    0.0000 C.ar    1  UNL1       -0.0511
     13 C           7.3142    1.2812    0.0000 C.ar    1  UNL1       -0.0430
     14 C           2.0000    0.2568    0.0000 C.3     1  UNL1       -0.0223
     15 C           6.4121    1.8020    0.0000 C.ar    1  UNL1        0.0284
     16 H           5.5301   -2.3873    0.0000 H       1  UNL1        0.0624
     17 H           6.9331   -1.5773    0.0000 H       1  UNL1        0.0624
     18 H           3.7773   -2.4219    0.0000 H       1  UNL1        0.0625
     19 H           2.3284   -1.6002    0.0000 H       1  UNL1        0.0636
     20 H           7.8395   -0.0766    0.0000 H       1  UNL1        0.0625
     21 H           7.8523    1.5891    0.0000 H       1  UNL1        0.0633
     22 H           2.3121    0.7926    0.0000 H       1  UNL1        0.0292
     23 H           1.4643    0.5689    0.0000 H       1  UNL1        0.0292
     24 H           1.6879   -0.2789    0.0000 H       1  UNL1        0.0292
     25 H           6.4097    2.4220    0.0000 H       1  UNL1        0.0830
@<TRIPOS>BOND
     1     1     3   ar
     2     1    10   ar
     3     2     5   ar
     4     2    15   ar
     5     3     4   ar
     6     3     5   ar
     7     4     7   ar
     8     4     9   ar
     9     5     6   ar
    10     6     8   ar
    11     6    12   ar
    12     7     8   ar
    13     7    16    1
    14     8    17    1
    15     9    11   ar
    16     9    18    1
    17    10    11   ar
    18    10    14    1
    19    11    19    1
    20    12    13   ar
    21    12    20    1
    22    13    15   ar
    23    13    21    1
    24    14    22    1
    25    14    23    1
    26    14    24    1
    27    15    25    1
