@<TRIPOS>MOLECULE
IMPHY017149
 33 32 0 0 0
SMALL
GASTEIGER

@<TRIPOS>ATOM
      1 O           4.5981   -0.5950    0.0000 O.3     1  UNL1       -0.3918
      2 C           5.4641    0.9050    0.0000 C.3     1  UNL1       -0.0269
      3 C           6.3301    0.4050    0.0000 C.3     1  UNL1       -0.0507
      4 C           4.5981    0.4050    0.0000 C.3     1  UNL1        0.0552
      5 C           7.1962    0.9050    0.0000 C.3     1  UNL1       -0.0530
      6 C           3.7320    0.9050    0.0000 C.3     1  UNL1       -0.0271
      7 C           8.0622    0.4050    0.0000 C.3     1  UNL1       -0.0533
      8 C           2.8660    0.4050    0.0000 C.3     1  UNL1       -0.0536
      9 C           8.9282    0.9050    0.0000 C.3     1  UNL1       -0.0559
     10 C           2.0000    0.9050    0.0000 C.3     1  UNL1       -0.0652
     11 C           9.7942    0.4050    0.0000 C.3     1  UNL1       -0.0653
     12 H           5.8626    1.3800    0.0000 H       1  UNL1        0.0290
     13 H           5.0656    1.3800    0.0000 H       1  UNL1        0.0290
     14 H           5.9316   -0.0699    0.0000 H       1  UNL1        0.0266
     15 H           6.7287   -0.0699    0.0000 H       1  UNL1        0.0266
     16 H           5.1350    0.0950    0.0000 H       1  UNL1        0.0593
     17 H           7.5947    1.3800    0.0000 H       1  UNL1        0.0265
     18 H           6.7976    1.3800    0.0000 H       1  UNL1        0.0265
     19 H           4.1306    1.3800    0.0000 H       1  UNL1        0.0290
     20 H           3.3335    1.3800    0.0000 H       1  UNL1        0.0290
     21 H           7.6636   -0.0699    0.0000 H       1  UNL1        0.0265
     22 H           8.4607   -0.0699    0.0000 H       1  UNL1        0.0265
     23 H           2.4675   -0.0699    0.0000 H       1  UNL1        0.0263
     24 H           3.2646   -0.0699    0.0000 H       1  UNL1        0.0263
     25 H           9.3267    1.3800    0.0000 H       1  UNL1        0.0263
     26 H           8.5297    1.3800    0.0000 H       1  UNL1        0.0263
     27 H           4.0611   -0.9050    0.0000 H       1  UNL1        0.2098
     28 H           2.3100    1.4419    0.0000 H       1  UNL1        0.0230
     29 H           1.4631    1.2150    0.0000 H       1  UNL1        0.0230
     30 H           1.6900    0.3681    0.0000 H       1  UNL1        0.0230
     31 H           9.4842   -0.1319    0.0000 H       1  UNL1        0.0230
     32 H          10.3312    0.0950    0.0000 H       1  UNL1        0.0230
     33 H          10.1042    0.9419    0.0000 H       1  UNL1        0.0230
@<TRIPOS>BOND
     1     1     4    1
     2     1    27    1
     3     2     3    1
     4     2     4    1
     5     2    12    1
     6     2    13    1
     7     3     5    1
     8     3    14    1
     9     3    15    1
    10     4     6    1
    11     4    16    1
    12     5     7    1
    13     5    17    1
    14     5    18    1
    15     6     8    1
    16     6    19    1
    17     6    20    1
    18     7     9    1
    19     7    21    1
    20     7    22    1
    21     8    10    1
    22     8    23    1
    23     8    24    1
    24     9    11    1
    25     9    25    1
    26     9    26    1
    27    10    28    1
    28    10    29    1
    29    10    30    1
    30    11    31    1
    31    11    32    1
    32    11    33    1
