@<TRIPOS>MOLECULE
IMPHY001346
 48 52 0 0 0
SMALL
GASTEIGER

@<TRIPOS>ATOM
      1 BR          5.6218    3.3806    0.0000 Br      1  UNL1       -0.0484
      2 O           1.7126    0.1406    0.0000 O.3     1  UNL1       -0.4646
      3 O           2.5787    1.6406    0.0000 O.2     1  UNL1       -0.2453
      4 N           6.0546   -1.1328    0.0000 N.3     1  UNL1       -0.2979
      5 N           4.4894    1.5784    0.0000 N.pl3   1  UNL1       -0.3156
      6 C           5.1295    0.1406    0.0000 C.3     1  UNL1        0.0526
      7 C           5.1295   -0.8322    0.0000 C.3     1  UNL1        0.0259
      8 C           3.4447   -0.8322    0.0000 C.3     1  UNL1       -0.0022
      9 C           4.2871   -1.3186    0.0000 C.3     1  UNL1       -0.0288
     10 C           6.0546    0.4411    0.0000 C.3     1  UNL1       -0.0238
     11 C           4.0493   -1.8806    0.0000 C.3     1  UNL1       -0.0214
     12 C           4.2871    0.6269    0.0000 C.2     1  UNL1        0.0306
     13 C           6.6264   -0.3458    0.0000 C.3     1  UNL1        0.0004
     14 C           5.2815   -1.8806    0.0000 C.3     1  UNL1        0.0026
     15 C           3.4447    0.1406    0.0000 C.2     1  UNL1        0.0578
     16 C           5.8524    0.7914    0.0000 C.ar    1  UNL1       -0.0119
     17 C           5.4568    1.6801    0.0000 C.ar    1  UNL1        0.0494
     18 C           4.0493   -2.8806    0.0000 C.3     1  UNL1       -0.0513
     19 C           6.8198    0.6898    0.0000 C.ar    1  UNL1       -0.0558
     20 C           2.5787    0.6406    0.0000 C.2     1  UNL1        0.3367
     21 C           6.0285    2.4670    0.0000 C.ar    1  UNL1        0.0393
     22 C           3.1833   -3.3806    0.0000 C.3     1  UNL1       -0.0650
     23 C           7.3916    1.4767    0.0000 C.ar    1  UNL1       -0.0603
     24 C           6.9959    2.3654    0.0000 C.ar    1  UNL1       -0.0460
     25 C           0.8466    0.6406    0.0000 C.3     1  UNL1        0.0820
     26 H           5.5988   -1.5409    0.0000 H       1  UNL1        0.0475
     27 H           2.6236   -1.0520    0.0000 H       1  UNL1        0.0355
     28 H           4.6856   -1.7935    0.0000 H       1  UNL1        0.0287
     29 H           3.8886   -1.7935    0.0000 H       1  UNL1        0.0287
     30 H           5.8025    1.0075    0.0000 H       1  UNL1        0.0290
     31 H           6.5916    0.7511    0.0000 H       1  UNL1        0.0290
     32 H           3.5124   -2.1906    0.0000 H       1  UNL1        0.0319
     33 H           7.0872    0.0690    0.0000 H       1  UNL1        0.0427
     34 H           7.0872   -0.7607    0.0000 H       1  UNL1        0.0427
     35 H           5.8149   -2.1965    0.0000 H       1  UNL1        0.0429
     36 H           5.1177   -2.4785    0.0000 H       1  UNL1        0.0429
     37 H           4.1249    2.0800    0.0000 H       1  UNL1        0.1519
     38 H           4.6599   -2.7729    0.0000 H       1  UNL1        0.0266
     39 H           4.2614   -3.4632    0.0000 H       1  UNL1        0.0266
     40 H           7.0720    0.1234    0.0000 H       1  UNL1        0.0621
     41 H           3.4933   -3.9175    0.0000 H       1  UNL1        0.0230
     42 H           2.6464   -3.6906    0.0000 H       1  UNL1        0.0230
     43 H           2.8733   -2.8436    0.0000 H       1  UNL1        0.0230
     44 H           8.0082    1.4119    0.0000 H       1  UNL1        0.0618
     45 H           7.3604    2.8670    0.0000 H       1  UNL1        0.0629
     46 H           0.5366    0.1036    0.0000 H       1  UNL1        0.0661
     47 H           0.3097    0.9506    0.0000 H       1  UNL1        0.0661
     48 H           1.1566    1.1775    0.0000 H       1  UNL1        0.0661
@<TRIPOS>BOND
     1     1    21    1
     2     2    20    1
     3     2    25    1
     4     3    20    2
     5     4     7    1
     6     4    13    1
     7     4    14    1
     8     5    12    1
     9     5    17    1
    10     5    37    1
    11     6     7    1
    12     6    10    1
    13     6    12    1
    14     6    16    1
    15     7     9    1
    16     7    26    1
    17     8     9    1
    18     8    11    1
    19     8    15    1
    20     8    27    1
    21     9    28    1
    22     9    29    1
    23    10    13    1
    24    10    30    1
    25    10    31    1
    26    11    14    1
    27    11    18    1
    28    11    32    1
    29    12    15    2
    30    13    33    1
    31    13    34    1
    32    14    35    1
    33    14    36    1
    34    15    20    1
    35    16    17   ar
    36    16    19   ar
    37    17    21   ar
    38    18    22    1
    39    18    38    1
    40    18    39    1
    41    19    23   ar
    42    19    40    1
    43    21    24   ar
    44    22    41    1
    45    22    42    1
    46    22    43    1
    47    23    24   ar
    48    23    44    1
    49    24    45    1
    50    25    46    1
    51    25    47    1
    52    25    48    1
