@<TRIPOS>MOLECULE
IMPHY010870
 79 82 0 0 0
SMALL
GASTEIGER

@<TRIPOS>ATOM
      1 O           2.0000   -3.2258    0.0000 O.2     1  UNL1       -0.2968
      2 C           7.3931   -0.1735    0.0000 C.3     1  UNL1       -0.0196
      3 C           7.3931   -1.1735    0.0000 C.3     1  UNL1       -0.0051
      4 C           8.3393    0.1313    0.0000 C.3     1  UNL1       -0.0322
      5 C           6.5271   -1.6735    0.0000 C.2     1  UNL1       -0.0633
      6 C           4.7510   -1.6803    0.0000 C.3     1  UNL1       -0.0067
      7 C           8.3393   -1.4782    0.0000 C.3     1  UNL1       -0.0431
      8 C           6.5271    0.3265    0.0000 C.3     1  UNL1       -0.0429
      9 C           5.6610   -1.1735    0.0000 C.2     1  UNL1       -0.0635
     10 C           8.9229   -0.6735    0.0000 C.3     1  UNL1       -0.0486
     11 C           4.7430   -2.7219    0.0000 C.3     1  UNL1       -0.0198
     12 C           5.6610   -0.1735    0.0000 C.3     1  UNL1       -0.0304
     13 C           6.5431   -2.7150    0.0000 C.3     1  UNL1       -0.0306
     14 C           8.6500    1.0818    0.0000 C.3     1  UNL1       -0.0402
     15 C           5.6451   -3.2427    0.0000 C.3     1  UNL1       -0.0448
     16 C           7.3931    0.8265    0.0000 C.3     1  UNL1       -0.0585
     17 C           7.3931   -2.1735    0.0000 C.3     1  UNL1       -0.0553
     18 C           3.8076   -3.2716    0.0000 C.3     1  UNL1        0.0270
     19 C           3.8242   -1.1162    0.0000 C.3     1  UNL1       -0.0369
     20 C           4.7587   -0.6803    0.0000 C.3     1  UNL1       -0.0555
     21 C           2.8763   -1.6442    0.0000 C.3     1  UNL1        0.0072
     22 C           2.8680   -2.7291    0.0000 C.2     1  UNL1        0.1392
     23 C           9.6285    1.2880    0.0000 C.3     1  UNL1       -0.0467
     24 C           7.9821    1.8261    0.0000 C.3     1  UNL1       -0.0621
     25 C           3.3109   -4.1396    0.0000 C.3     1  UNL1       -0.0528
     26 C           4.3109   -4.1357    0.0000 C.3     1  UNL1       -0.0528
     27 C           9.9391    2.2385    0.0000 C.3     1  UNL1       -0.0343
     28 C          10.9176    2.4448    0.0000 C.2     1  UNL1       -0.0853
     29 C          11.2283    3.3953    0.0000 C.2     1  UNL1       -0.0796
     30 C          12.2068    3.6015    0.0000 C.3     1  UNL1       -0.0440
     31 C          10.5605    4.1396    0.0000 C.3     1  UNL1       -0.0440
     32 H           9.1790    0.2632    0.0000 H       1  UNL1        0.0309
     33 H           8.0883   -2.0451    0.0000 H       1  UNL1        0.0274
     34 H           8.8767   -1.7874    0.0000 H       1  UNL1        0.0274
     35 H           6.9256    0.8015    0.0000 H       1  UNL1        0.0274
     36 H           6.1285    0.8015    0.0000 H       1  UNL1        0.0274
     37 H           9.3838   -1.0882    0.0000 H       1  UNL1        0.0268
     38 H           9.3838   -0.2587    0.0000 H       1  UNL1        0.0268
     39 H           4.7463   -3.5719    0.0000 H       1  UNL1        0.0318
     40 H           5.4490    0.4092    0.0000 H       1  UNL1        0.0310
     41 H           5.0504   -0.2811    0.0000 H       1  UNL1        0.0310
     42 H           6.7612   -3.2954    0.0000 H       1  UNL1        0.0310
     43 H           7.1523   -2.5995    0.0000 H       1  UNL1        0.0310
     44 H           8.0433    0.9539    0.0000 H       1  UNL1        0.0301
     45 H           5.2478   -3.7187    0.0000 H       1  UNL1        0.0271
     46 H           6.0460   -3.7156    0.0000 H       1  UNL1        0.0271
     47 H           8.0131    0.8265    0.0000 H       1  UNL1        0.0235
     48 H           7.3931    1.4465    0.0000 H       1  UNL1        0.0235
     49 H           6.7731    0.8265    0.0000 H       1  UNL1        0.0235
     50 H           6.7731   -2.1735    0.0000 H       1  UNL1        0.0238
     51 H           7.3931   -2.7935    0.0000 H       1  UNL1        0.0238
     52 H           8.0131   -2.1735    0.0000 H       1  UNL1        0.0238
     53 H           4.2324   -0.6496    0.0000 H       1  UNL1        0.0278
     54 H           3.4343   -0.6342    0.0000 H       1  UNL1        0.0278
     55 H           5.3787   -0.6851    0.0000 H       1  UNL1        0.0238
     56 H           4.7635   -0.0604    0.0000 H       1  UNL1        0.0238
     57 H           4.1388   -0.6756    0.0000 H       1  UNL1        0.0238
     58 H           2.6718   -1.0589    0.0000 H       1  UNL1        0.0342
     59 H           2.2647   -1.7456    0.0000 H       1  UNL1        0.0342
     60 H           9.6490    0.6684    0.0000 H       1  UNL1        0.0271
     61 H          10.2423    1.2007    0.0000 H       1  UNL1        0.0271
     62 H           8.4436    2.2402    0.0000 H       1  UNL1        0.0233
     63 H           7.5681    2.2876    0.0000 H       1  UNL1        0.0233
     64 H           7.5207    1.4120    0.0000 H       1  UNL1        0.0233
     65 H           2.7728   -3.8316    0.0000 H       1  UNL1        0.0239
     66 H           3.0030   -4.6777    0.0000 H       1  UNL1        0.0239
     67 H           3.8490   -4.4475    0.0000 H       1  UNL1        0.0239
     68 H           3.7752   -4.4478    0.0000 H       1  UNL1        0.0239
     69 H           4.6230   -4.6715    0.0000 H       1  UNL1        0.0239
     70 H           4.8466   -3.8236    0.0000 H       1  UNL1        0.0239
     71 H           9.9186    2.8582    0.0000 H       1  UNL1        0.0307
     72 H           9.3253    2.3259    0.0000 H       1  UNL1        0.0307
     73 H          11.3317    1.9833    0.0000 H       1  UNL1        0.0571
     74 H          12.3347    2.9948    0.0000 H       1  UNL1        0.0274
     75 H          11.0219    4.5536    0.0000 H       1  UNL1        0.0274
     76 H          10.1464    4.6010    0.0000 H       1  UNL1        0.0274
     77 H          10.0990    3.7255    0.0000 H       1  UNL1        0.0274
     78 H          12.8135    3.7294    0.0000 H       1  UNL1        0.0274
     79 H          12.0790    4.2082    0.0000 H       1  UNL1        0.0274
@<TRIPOS>BOND
     1     1    22    2
     2     2     3    1
     3     2     4    1
     4     2     8    1
     5     2    16    1
     6     3     5    1
     7     3     7    1
     8     3    17    1
     9     4    10    1
    10     4    14    1
    11     4    32    1
    12     5     9    2
    13     5    13    1
    14     6     9    1
    15     6    11    1
    16     6    19    1
    17     6    20    1
    18     7    10    1
    19     7    33    1
    20     7    34    1
    21     8    12    1
    22     8    35    1
    23     8    36    1
    24     9    12    1
    25    10    37    1
    26    10    38    1
    27    11    15    1
    28    11    18    1
    29    11    39    1
    30    12    40    1
    31    12    41    1
    32    13    15    1
    33    13    42    1
    34    13    43    1
    35    14    23    1
    36    14    24    1
    37    14    44    1
    38    15    45    1
    39    15    46    1
    40    16    47    1
    41    16    48    1
    42    16    49    1
    43    17    50    1
    44    17    51    1
    45    17    52    1
    46    18    22    1
    47    18    25    1
    48    18    26    1
    49    19    21    1
    50    19    53    1
    51    19    54    1
    52    20    55    1
    53    20    56    1
    54    20    57    1
    55    21    22    1
    56    21    58    1
    57    21    59    1
    58    23    27    1
    59    23    60    1
    60    23    61    1
    61    24    62    1
    62    24    63    1
    63    24    64    1
    64    25    65    1
    65    25    66    1
    66    25    67    1
    67    26    68    1
    68    26    69    1
    69    26    70    1
    70    27    28    1
    71    27    71    1
    72    27    72    1
    73    28    29    2
    74    28    73    1
    75    29    30    1
    76    29    31    1
    77    30    74    1
    78    30    78    1
    79    30    79    1
    80    31    75    1
    81    31    76    1
    82    31    77    1
