@<TRIPOS>MOLECULE
IMPHY016161
 46 45 0 0 0
SMALL
GASTEIGER

@<TRIPOS>ATOM
      1 C           8.0622   -0.2500    0.0000 C.3     1  UNL1       -0.0531
      2 C           8.9282    0.2500    0.0000 C.3     1  UNL1       -0.0531
      3 C           7.1962    0.2500    0.0000 C.3     1  UNL1       -0.0531
      4 C           9.7942   -0.2500    0.0000 C.3     1  UNL1       -0.0531
      5 C           6.3301   -0.2500    0.0000 C.3     1  UNL1       -0.0530
      6 C          10.6603    0.2500    0.0000 C.3     1  UNL1       -0.0530
      7 C           5.4641    0.2500    0.0000 C.3     1  UNL1       -0.0528
      8 C          11.5263   -0.2500    0.0000 C.3     1  UNL1       -0.0528
      9 C           4.5981   -0.2500    0.0000 C.3     1  UNL1       -0.0496
     10 C          12.3923    0.2500    0.0000 C.3     1  UNL1       -0.0496
     11 C           3.7320    0.2500    0.0000 C.3     1  UNL1       -0.0350
     12 C          13.2583   -0.2500    0.0000 C.3     1  UNL1       -0.0350
     13 C           2.8660   -0.2500    0.0000 C.2     1  UNL1       -0.0911
     14 C          14.1244    0.2500    0.0000 C.2     1  UNL1       -0.0911
     15 C           2.0000    0.2500    0.0000 C.2     1  UNL1       -0.1026
     16 C          14.9904   -0.2500    0.0000 C.2     1  UNL1       -0.1026
     17 H           7.6636   -0.7249    0.0000 H       1  UNL1        0.0265
     18 H           8.4607   -0.7249    0.0000 H       1  UNL1        0.0265
     19 H           9.3267    0.7249    0.0000 H       1  UNL1        0.0265
     20 H           8.5297    0.7249    0.0000 H       1  UNL1        0.0265
     21 H           7.5947    0.7249    0.0000 H       1  UNL1        0.0265
     22 H           6.7976    0.7249    0.0000 H       1  UNL1        0.0265
     23 H           9.3957   -0.7249    0.0000 H       1  UNL1        0.0265
     24 H          10.1928   -0.7249    0.0000 H       1  UNL1        0.0265
     25 H           5.9316   -0.7249    0.0000 H       1  UNL1        0.0265
     26 H           6.7287   -0.7249    0.0000 H       1  UNL1        0.0265
     27 H          11.0588    0.7249    0.0000 H       1  UNL1        0.0265
     28 H          10.2617    0.7249    0.0000 H       1  UNL1        0.0265
     29 H           5.8626    0.7249    0.0000 H       1  UNL1        0.0265
     30 H           5.0656    0.7249    0.0000 H       1  UNL1        0.0265
     31 H          11.1278   -0.7249    0.0000 H       1  UNL1        0.0265
     32 H          11.9248   -0.7249    0.0000 H       1  UNL1        0.0265
     33 H           4.1996   -0.7249    0.0000 H       1  UNL1        0.0268
     34 H           4.9966   -0.7249    0.0000 H       1  UNL1        0.0268
     35 H          12.7908    0.7249    0.0000 H       1  UNL1        0.0268
     36 H          11.9938    0.7249    0.0000 H       1  UNL1        0.0268
     37 H           4.1306    0.7249    0.0000 H       1  UNL1        0.0307
     38 H           3.3335    0.7249    0.0000 H       1  UNL1        0.0307
     39 H          12.8598   -0.7249    0.0000 H       1  UNL1        0.0307
     40 H          13.6569   -0.7249    0.0000 H       1  UNL1        0.0307
     41 H           2.8660   -0.8700    0.0000 H       1  UNL1        0.0566
     42 H          14.1244    0.8700    0.0000 H       1  UNL1        0.0566
     43 H           2.0000    0.8700    0.0000 H       1  UNL1        0.0532
     44 H           1.4631   -0.0600    0.0000 H       1  UNL1        0.0532
     45 H          14.9904   -0.8700    0.0000 H       1  UNL1        0.0532
     46 H          15.5273    0.0600    0.0000 H       1  UNL1        0.0532
@<TRIPOS>BOND
     1     1     2    1
     2     1     3    1
     3     1    17    1
     4     1    18    1
     5     2     4    1
     6     2    19    1
     7     2    20    1
     8     3     5    1
     9     3    21    1
    10     3    22    1
    11     4     6    1
    12     4    23    1
    13     4    24    1
    14     5     7    1
    15     5    25    1
    16     5    26    1
    17     6     8    1
    18     6    27    1
    19     6    28    1
    20     7     9    1
    21     7    29    1
    22     7    30    1
    23     8    10    1
    24     8    31    1
    25     8    32    1
    26     9    11    1
    27     9    33    1
    28     9    34    1
    29    10    12    1
    30    10    35    1
    31    10    36    1
    32    11    13    1
    33    11    37    1
    34    11    38    1
    35    12    14    1
    36    12    39    1
    37    12    40    1
    38    13    15    2
    39    13    41    1
    40    14    16    2
    41    14    42    1
    42    15    43    1
    43    15    44    1
    44    16    45    1
    45    16    46    1
