@<TRIPOS>MOLECULE
IMPHY015190
 32 33 0 0 0
SMALL
GASTEIGER

@<TRIPOS>ATOM
      1 C           4.6783    0.5357    0.0000 C.3     1  UNL1        0.0056
      2 C           4.9889    1.4862    0.0000 C.3     1  UNL1       -0.0364
      3 C           3.7320    0.2310    0.0000 C.ar    1  UNL1       -0.0329
      4 C           5.2619   -0.2690    0.0000 C.2     1  UNL1       -0.0726
      5 C           3.7320   -0.7690    0.0000 C.ar    1  UNL1       -0.0184
      6 C           4.6783   -1.0738    0.0000 C.2     1  UNL1       -0.0435
      7 C           5.9674    1.6924    0.0000 C.3     1  UNL1       -0.0618
      8 C           4.3211    2.2305    0.0000 C.3     1  UNL1       -0.0618
      9 C           4.9889   -2.0243    0.0000 C.3     1  UNL1       -0.0302
     10 C           2.8660    0.7310    0.0000 C.ar    1  UNL1       -0.0574
     11 C           2.8660   -1.2690    0.0000 C.ar    1  UNL1       -0.0541
     12 C           2.0000    0.2310    0.0000 C.ar    1  UNL1       -0.0614
     13 C           2.0000   -0.7690    0.0000 C.ar    1  UNL1       -0.0612
     14 C           5.9674   -2.2305    0.0000 C.3     1  UNL1       -0.0613
     15 H           5.2908    0.6319    0.0000 H       1  UNL1        0.0394
     16 H           5.1815    2.0755    0.0000 H       1  UNL1        0.0304
     17 H           5.8819   -0.2690    0.0000 H       1  UNL1        0.0581
     18 H           6.0953    1.0858    0.0000 H       1  UNL1        0.0233
     19 H           6.5741    1.8203    0.0000 H       1  UNL1        0.0233
     20 H           5.8396    2.2991    0.0000 H       1  UNL1        0.0233
     21 H           4.7826    2.6446    0.0000 H       1  UNL1        0.0233
     22 H           3.9070    2.6920    0.0000 H       1  UNL1        0.0233
     23 H           3.8596    1.8164    0.0000 H       1  UNL1        0.0233
     24 H           4.3751   -2.1116    0.0000 H       1  UNL1        0.0311
     25 H           4.9684   -2.6439    0.0000 H       1  UNL1        0.0311
     26 H           2.8660    1.3510    0.0000 H       1  UNL1        0.0621
     27 H           2.8660   -1.8890    0.0000 H       1  UNL1        0.0624
     28 H           1.4631    0.5410    0.0000 H       1  UNL1        0.0618
     29 H           1.4631   -1.0790    0.0000 H       1  UNL1        0.0618
     30 H           5.8396   -2.8372    0.0000 H       1  UNL1        0.0233
     31 H           6.5741   -2.3584    0.0000 H       1  UNL1        0.0233
     32 H           6.0953   -1.6238    0.0000 H       1  UNL1        0.0233
@<TRIPOS>BOND
     1     1     2    1
     2     1     3    1
     3     1     4    1
     4     1    15    1
     5     2     7    1
     6     2     8    1
     7     2    16    1
     8     3     5   ar
     9     3    10   ar
    10     4     6    2
    11     4    17    1
    12     5     6    1
    13     5    11   ar
    14     6     9    1
    15     7    18    1
    16     7    19    1
    17     7    20    1
    18     8    21    1
    19     8    22    1
    20     8    23    1
    21     9    14    1
    22     9    24    1
    23     9    25    1
    24    10    12   ar
    25    10    26    1
    26    11    13   ar
    27    11    27    1
    28    12    13   ar
    29    12    28    1
    30    13    29    1
    31    14    30    1
    32    14    31    1
    33    14    32    1
