@<TRIPOS>MOLECULE
IMPHY012362
 27 27 0 0 0
SMALL
GASTEIGER

@<TRIPOS>ATOM
      1 O           3.3660    2.1830    0.0000 O.3     1  UNL1       -0.3848
      2 C           2.8660    1.3170    0.0000 C.3     1  UNL1        0.0814
      3 C           2.0000    0.8170    0.0000 C.3     1  UNL1       -0.0198
      4 C           2.0000   -0.1830    0.0000 C.3     1  UNL1       -0.0402
      5 C           2.8660   -0.6830    0.0000 C.3     1  UNL1       -0.0022
      6 C           3.7320    0.8170    0.0000 C.2     1  UNL1       -0.0565
      7 C           3.7320   -0.1830    0.0000 C.2     1  UNL1       -0.0782
      8 C           2.3660    2.1830    0.0000 C.3     1  UNL1       -0.0324
      9 C           2.8660   -1.6830    0.0000 C.2     1  UNL1       -0.0729
     10 C           2.0000   -2.1830    0.0000 C.3     1  UNL1       -0.0435
     11 C           3.7320   -2.1830    0.0000 C.2     1  UNL1       -0.0992
     12 H           1.7880    1.3996    0.0000 H       1  UNL1        0.0296
     13 H           1.3894    0.7093    0.0000 H       1  UNL1        0.0296
     14 H           1.3894   -0.0754    0.0000 H       1  UNL1        0.0275
     15 H           1.7880   -0.7656    0.0000 H       1  UNL1        0.0275
     16 H           3.4030   -0.9930    0.0000 H       1  UNL1        0.0388
     17 H           4.2690    1.1270    0.0000 H       1  UNL1        0.0597
     18 H           4.2690   -0.4930    0.0000 H       1  UNL1        0.0576
     19 H           2.9030    2.4930    0.0000 H       1  UNL1        0.0260
     20 H           2.0560    2.7200    0.0000 H       1  UNL1        0.0260
     21 H           1.8291    1.8730    0.0000 H       1  UNL1        0.0260
     22 H           3.9860    2.1830    0.0000 H       1  UNL1        0.2106
     23 H           1.6900   -1.6461    0.0000 H       1  UNL1        0.0274
     24 H           1.4631   -2.4930    0.0000 H       1  UNL1        0.0274
     25 H           2.3100   -2.7200    0.0000 H       1  UNL1        0.0274
     26 H           3.7320   -2.8030    0.0000 H       1  UNL1        0.0534
     27 H           4.2690   -1.8730    0.0000 H       1  UNL1        0.0534
@<TRIPOS>BOND
     1     1     2    1
     2     1    22    1
     3     2     3    1
     4     2     6    1
     5     2     8    1
     6     3     4    1
     7     3    12    1
     8     3    13    1
     9     4     5    1
    10     4    14    1
    11     4    15    1
    12     5     7    1
    13     5     9    1
    14     5    16    1
    15     6     7    2
    16     6    17    1
    17     7    18    1
    18     8    19    1
    19     8    20    1
    20     8    21    1
    21     9    10    1
    22     9    11    2
    23    10    23    1
    24    10    24    1
    25    10    25    1
    26    11    26    1
    27    11    27    1
