@<TRIPOS>MOLECULE
IMPHY017175
 42 42 0 0 0
SMALL
GASTEIGER

@<TRIPOS>ATOM
      1 C           2.8660   -1.7500    0.0000 C.3     1  UNL1       -0.0385
      2 C           2.8660   -0.7500    0.0000 C.3     1  UNL1       -0.0410
      3 C           2.0000   -2.2500    0.0000 C.3     1  UNL1       -0.0500
      4 C           3.7320   -2.2500    0.0000 C.3     1  UNL1       -0.0500
      5 C           2.0000   -3.2500    0.0000 C.3     1  UNL1       -0.0528
      6 C           3.7320   -3.2500    0.0000 C.3     1  UNL1       -0.0528
      7 C           2.8660   -3.7500    0.0000 C.3     1  UNL1       -0.0530
      8 C           3.7320   -0.2500    0.0000 C.3     1  UNL1       -0.0502
      9 C           2.0000   -0.2500    0.0000 C.3     1  UNL1       -0.0622
     10 C           3.7320    0.7500    0.0000 C.3     1  UNL1       -0.0528
     11 C           4.5981    1.2500    0.0000 C.3     1  UNL1       -0.0531
     12 C           4.5981    2.2500    0.0000 C.3     1  UNL1       -0.0533
     13 C           5.4641    2.7500    0.0000 C.3     1  UNL1       -0.0559
     14 C           5.4641    3.7500    0.0000 C.3     1  UNL1       -0.0653
     15 H           3.4030   -1.4400    0.0000 H       1  UNL1        0.0303
     16 H           2.8660   -0.1300    0.0000 H       1  UNL1        0.0301
     17 H           1.7880   -1.6674    0.0000 H       1  UNL1        0.0268
     18 H           1.3894   -2.3577    0.0000 H       1  UNL1        0.0268
     19 H           4.3426   -2.3577    0.0000 H       1  UNL1        0.0268
     20 H           3.9441   -1.6674    0.0000 H       1  UNL1        0.0268
     21 H           1.3894   -3.1423    0.0000 H       1  UNL1        0.0265
     22 H           1.7880   -3.8326    0.0000 H       1  UNL1        0.0265
     23 H           3.9441   -3.8326    0.0000 H       1  UNL1        0.0265
     24 H           4.3426   -3.1423    0.0000 H       1  UNL1        0.0265
     25 H           2.4675   -4.2250    0.0000 H       1  UNL1        0.0265
     26 H           3.2646   -4.2250    0.0000 H       1  UNL1        0.0265
     27 H           3.9441   -0.8326    0.0000 H       1  UNL1        0.0268
     28 H           4.3426   -0.1423    0.0000 H       1  UNL1        0.0268
     29 H           2.3100    0.2869    0.0000 H       1  UNL1        0.0233
     30 H           1.4631    0.0600    0.0000 H       1  UNL1        0.0233
     31 H           1.6900   -0.7869    0.0000 H       1  UNL1        0.0233
     32 H           3.5200    1.3326    0.0000 H       1  UNL1        0.0265
     33 H           3.1215    0.6423    0.0000 H       1  UNL1        0.0265
     34 H           4.8101    0.6674    0.0000 H       1  UNL1        0.0265
     35 H           5.2087    1.3577    0.0000 H       1  UNL1        0.0265
     36 H           4.3860    2.8326    0.0000 H       1  UNL1        0.0265
     37 H           3.9875    2.1423    0.0000 H       1  UNL1        0.0265
     38 H           5.6762    2.1674    0.0000 H       1  UNL1        0.0263
     39 H           6.0747    2.8577    0.0000 H       1  UNL1        0.0263
     40 H           6.0841    3.7500    0.0000 H       1  UNL1        0.0230
     41 H           5.4641    4.3700    0.0000 H       1  UNL1        0.0230
     42 H           4.8441    3.7500    0.0000 H       1  UNL1        0.0230
@<TRIPOS>BOND
     1     1     2    1
     2     1     3    1
     3     1     4    1
     4     1    15    1
     5     2     8    1
     6     2     9    1
     7     2    16    1
     8     3     5    1
     9     3    17    1
    10     3    18    1
    11     4     6    1
    12     4    19    1
    13     4    20    1
    14     5     7    1
    15     5    21    1
    16     5    22    1
    17     6     7    1
    18     6    23    1
    19     6    24    1
    20     7    25    1
    21     7    26    1
    22     8    10    1
    23     8    27    1
    24     8    28    1
    25     9    29    1
    26     9    30    1
    27     9    31    1
    28    10    11    1
    29    10    32    1
    30    10    33    1
    31    11    12    1
    32    11    34    1
    33    11    35    1
    34    12    13    1
    35    12    36    1
    36    12    37    1
    37    13    14    1
    38    13    38    1
    39    13    39    1
    40    14    40    1
    41    14    41    1
    42    14    42    1
