@<TRIPOS>MOLECULE
IMPHY014317
 62 64 0 0 0
SMALL
GASTEIGER

@<TRIPOS>ATOM
      1 O           4.3958   -0.1761    0.0000 O.3     1  UNL1       -0.4573
      2 O           6.1279   -2.1761    0.0000 O.3     1  UNL1       -0.4581
      3 O           5.5207    2.2898    0.0000 O.3     1  UNL1       -0.3748
      4 O           7.8600    0.8239    0.0000 O.3     1  UNL1       -0.4563
      5 O           3.5298    1.3239    0.0000 O.2     1  UNL1       -0.2474
      6 O           6.8940    0.1812    0.0000 O.3     1  UNL1       -0.3777
      7 O           6.0280   -0.9349    0.0000 O.3     1  UNL1       -0.3746
      8 O           7.8600   -2.1761    0.0000 O.2     1  UNL1       -0.2474
      9 O           6.9939    2.3239    0.0000 O.2     1  UNL1       -0.2478
     10 N           2.5836   -1.9808    0.0000 N.3     1  UNL1       -0.2886
     11 C           3.5298   -1.6761    0.0000 C.3     1  UNL1        0.0723
     12 C           3.5298   -0.6761    0.0000 C.3     1  UNL1        0.1236
     13 C           2.5836   -0.3714    0.0000 C.3     1  UNL1       -0.0010
     14 C           2.0000   -1.1761    0.0000 C.3     1  UNL1        0.0033
     15 C           4.3958   -2.1761    0.0000 C.2     1  UNL1       -0.0148
     16 C           2.8898   -2.9414    0.0000 C.3     1  UNL1        0.0182
     17 C           3.8921   -3.0494    0.0000 C.2     1  UNL1       -0.0660
     18 C           5.2619   -1.6761    0.0000 C.3     1  UNL1        0.1153
     19 C           5.2619    1.3239    0.0000 C.3     1  UNL1        0.2009
     20 C           4.3958    0.8239    0.0000 C.2     1  UNL1        0.3429
     21 C           4.6883    2.1431    0.0000 C.3     1  UNL1       -0.0042
     22 C           6.1279    0.8239    0.0000 C.3     1  UNL1        0.1912
     23 C           6.9939   -0.6761    0.0000 C.3     1  UNL1        0.1987
     24 C           7.8600   -0.1761    0.0000 C.3     1  UNL1        0.1393
     25 C           6.9939   -1.6761    0.0000 C.2     1  UNL1        0.3432
     26 C           3.6921    2.0559    0.0000 C.3     1  UNL1       -0.0594
     27 C           5.1109    3.0494    0.0000 C.3     1  UNL1       -0.0594
     28 C           6.9939    1.3239    0.0000 C.2     1  UNL1        0.3399
     29 C           6.2868    0.0310    0.0000 C.3     1  UNL1       -0.0127
     30 C           8.7260   -0.6761    0.0000 C.3     1  UNL1       -0.0244
     31 C           5.3209   -0.2278    0.0000 C.3     1  UNL1       -0.0620
     32 H           3.4642   -2.2926    0.0000 H       1  UNL1        0.0547
     33 H           3.4642   -0.0596    0.0000 H       1  UNL1        0.0753
     34 H           2.8346    0.1955    0.0000 H       1  UNL1        0.0314
     35 H           2.0462   -0.0621    0.0000 H       1  UNL1        0.0314
     36 H           1.5391   -0.7614    0.0000 H       1  UNL1        0.0428
     37 H           1.5391   -1.5908    0.0000 H       1  UNL1        0.0428
     38 H           2.2787   -3.0462    0.0000 H       1  UNL1        0.0470
     39 H           2.9092   -3.5611    0.0000 H       1  UNL1        0.0470
     40 H           4.1730   -3.6021    0.0000 H       1  UNL1        0.0586
     41 H           5.6604   -1.2012    0.0000 H       1  UNL1        0.0746
     42 H           4.8633   -1.2012    0.0000 H       1  UNL1        0.0746
     43 H           4.3327    2.6509    0.0000 H       1  UNL1        0.0330
     44 H           5.7723    0.3160    0.0000 H       1  UNL1        0.0746
     45 H           8.3969    0.1339    0.0000 H       1  UNL1        0.0766
     46 H           3.6381    2.6735    0.0000 H       1  UNL1        0.0233
     47 H           3.0745    2.0019    0.0000 H       1  UNL1        0.0233
     48 H           3.7462    1.4383    0.0000 H       1  UNL1        0.0233
     49 H           5.6728    2.7873    0.0000 H       1  UNL1        0.0233
     50 H           5.3729    3.6113    0.0000 H       1  UNL1        0.0233
     51 H           4.5490    3.3114    0.0000 H       1  UNL1        0.0233
     52 H           6.7947    0.3866    0.0000 H       1  UNL1        0.0297
     53 H           6.0248    0.5929    0.0000 H       1  UNL1        0.0297
     54 H           6.1196    2.4503    0.0000 H       1  UNL1        0.2110
     55 H           8.4160   -1.2130    0.0000 H       1  UNL1        0.0266
     56 H           9.2629   -0.9861    0.0000 H       1  UNL1        0.0266
     57 H           9.0360   -0.1392    0.0000 H       1  UNL1        0.0266
     58 H           7.2925    0.6560    0.0000 H       1  UNL1        0.2106
     59 H           5.8675   -1.5337    0.0000 H       1  UNL1        0.2110
     60 H           5.1604    0.3711    0.0000 H       1  UNL1        0.0231
     61 H           4.7220   -0.3883    0.0000 H       1  UNL1        0.0231
     62 H           5.4814   -0.8267    0.0000 H       1  UNL1        0.0231
@<TRIPOS>BOND
     1     1    12    1
     2     1    20    1
     3     2    18    1
     4     2    25    1
     5     3    19    1
     6     3    54    1
     7     4    24    1
     8     4    28    1
     9     5    20    2
    10     6    22    1
    11     6    58    1
    12     7    23    1
    13     7    59    1
    14     8    25    2
    15     9    28    2
    16    10    11    1
    17    10    14    1
    18    10    16    1
    19    11    12    1
    20    11    15    1
    21    11    32    1
    22    12    13    1
    23    12    33    1
    24    13    14    1
    25    13    34    1
    26    13    35    1
    27    14    36    1
    28    14    37    1
    29    15    17    2
    30    15    18    1
    31    16    17    1
    32    16    38    1
    33    16    39    1
    34    17    40    1
    35    18    41    1
    36    18    42    1
    37    19    20    1
    38    19    21    1
    39    19    22    1
    40    21    26    1
    41    21    27    1
    42    21    43    1
    43    22    28    1
    44    22    44    1
    45    23    24    1
    46    23    25    1
    47    23    29    1
    48    24    30    1
    49    24    45    1
    50    26    46    1
    51    26    47    1
    52    26    48    1
    53    27    49    1
    54    27    50    1
    55    27    51    1
    56    29    31    1
    57    29    52    1
    58    29    53    1
    59    30    55    1
    60    30    56    1
    61    30    57    1
    62    31    60    1
    63    31    61    1
    64    31    62    1
