@<TRIPOS>MOLECULE
IMPHY004334
 37 38 0 0 0
SMALL
GASTEIGER

@<TRIPOS>ATOM
      1 O           4.2690    0.1550    0.0000 O.3     1  UNL1       -0.3405
      2 O           6.0010    0.1550    0.0000 O.3     1  UNL1       -0.3441
      3 O           4.2690   -2.8450    0.0000 O.3     1  UNL1       -0.3864
      4 O           2.5369   -1.8450    0.0000 O.3     1  UNL1       -0.3865
      5 O           6.0010   -1.8450    0.0000 O.3     1  UNL1       -0.3841
      6 O           2.5369    1.1550    0.0000 O.3     1  UNL1       -0.3924
      7 C           4.2690   -1.8450    0.0000 C.3     1  UNL1        0.1141
      8 C           3.4030   -1.3450    0.0000 C.3     1  UNL1        0.1119
      9 C           5.1350   -1.3450    0.0000 C.3     1  UNL1        0.1341
     10 C           3.4030   -0.3450    0.0000 C.3     1  UNL1        0.1130
     11 C           5.1350   -0.3450    0.0000 C.3     1  UNL1        0.1883
     12 C           2.5369    0.1550    0.0000 C.3     1  UNL1        0.0730
     13 C           6.0010    1.1550    0.0000 C.3     1  UNL1        0.0758
     14 C           6.8671    1.6550    0.0000 C.ar    1  UNL1       -0.0218
     15 C           7.7331    1.1550    0.0000 C.ar    1  UNL1       -0.0564
     16 C           6.8671    2.6550    0.0000 C.ar    1  UNL1       -0.0564
     17 C           8.5991    1.6550    0.0000 C.ar    1  UNL1       -0.0614
     18 C           7.7331    3.1550    0.0000 C.ar    1  UNL1       -0.0614
     19 C           8.5991    2.6550    0.0000 C.ar    1  UNL1       -0.0617
     20 H           4.8059   -2.1550    0.0000 H       1  UNL1        0.0648
     21 H           3.4030   -1.9650    0.0000 H       1  UNL1        0.0647
     22 H           5.6720   -1.0350    0.0000 H       1  UNL1        0.0671
     23 H           3.4030    0.2750    0.0000 H       1  UNL1        0.0647
     24 H           5.1350    0.2750    0.0000 H       1  UNL1        0.0938
     25 H           1.9264    0.2627    0.0000 H       1  UNL1        0.0584
     26 H           2.3249   -0.4276    0.0000 H       1  UNL1        0.0584
     27 H           3.7320   -3.1550    0.0000 H       1  UNL1        0.2100
     28 H           2.0000   -1.5350    0.0000 H       1  UNL1        0.2100
     29 H           6.5380   -1.5350    0.0000 H       1  UNL1        0.2101
     30 H           5.7890    1.7376    0.0000 H       1  UNL1        0.0611
     31 H           5.3905    1.0473    0.0000 H       1  UNL1        0.0611
     32 H           2.0000    1.4650    0.0000 H       1  UNL1        0.2095
     33 H           7.7331    0.5350    0.0000 H       1  UNL1        0.0621
     34 H           6.3301    2.9650    0.0000 H       1  UNL1        0.0621
     35 H           9.1360    1.3450    0.0000 H       1  UNL1        0.0618
     36 H           7.7331    3.7750    0.0000 H       1  UNL1        0.0618
     37 H           9.1360    2.9650    0.0000 H       1  UNL1        0.0618
@<TRIPOS>BOND
     1     1    10    1
     2     1    11    1
     3    11     2    1
     4     2    13    1
     5     7     3    1
     6     3    27    1
     7     8     4    1
     8     4    28    1
     9     9     5    1
    10     5    29    1
    11     6    12    1
    12     6    32    1
    13     7     8    1
    14     7     9    1
    15     7    20    1
    16     8    10    1
    17     8    21    1
    18     9    11    1
    19     9    22    1
    20    10    12    1
    21    10    23    1
    22    11    24    1
    23    12    25    1
    24    12    26    1
    25    13    14    1
    26    13    30    1
    27    13    31    1
    28    14    15   ar
    29    14    16   ar
    30    15    17   ar
    31    15    33    1
    32    16    18   ar
    33    16    34    1
    34    17    19   ar
    35    17    35    1
    36    18    19   ar
    37    18    36    1
    38    19    37    1
