@<TRIPOS>MOLECULE
IMPHY001676
 18 17 0 0 0
SMALL
GASTEIGER

@<TRIPOS>ATOM
      1 O           4.2690   -1.2500    0.0000 O.2     1  UNL1       -0.2960
      2 O           7.7331   -0.2500    0.0000 O.3     1  UNL1       -0.4806
      3 O           6.8671    1.2500    0.0000 O.2     1  UNL1       -0.2510
      4 N           2.5369   -0.2500    0.0000 N.3     1  UNL1       -0.3238
      5 C           5.1350    0.2500    0.0000 C.3     1  UNL1        0.0171
      6 C           6.0010   -0.2500    0.0000 C.3     1  UNL1        0.0515
      7 C           4.2690   -0.2500    0.0000 C.2     1  UNL1        0.1473
      8 C           3.4030    0.2500    0.0000 C.3     1  UNL1        0.0524
      9 C           6.8671    0.2500    0.0000 C.2     1  UNL1        0.3051
     10 H           5.5335    0.7249    0.0000 H       1  UNL1        0.0347
     11 H           4.7365    0.7249    0.0000 H       1  UNL1        0.0347
     12 H           5.6025   -0.7249    0.0000 H       1  UNL1        0.0382
     13 H           6.3996   -0.7249    0.0000 H       1  UNL1        0.0382
     14 H           3.8015    0.7249    0.0000 H       1  UNL1        0.0500
     15 H           3.0044    0.7249    0.0000 H       1  UNL1        0.0500
     16 H           2.0000    0.0600    0.0000 H       1  UNL1        0.1186
     17 H           2.5369   -0.8700    0.0000 H       1  UNL1        0.1186
     18 H           8.2700    0.0600    0.0000 H       1  UNL1        0.2951
@<TRIPOS>BOND
     1     1     7    2
     2     2     9    1
     3     2    18    1
     4     3     9    2
     5     4     8    1
     6     4    16    1
     7     4    17    1
     8     5     6    1
     9     5     7    1
    10     5    10    1
    11     5    11    1
    12     6     9    1
    13     6    12    1
    14     6    13    1
    15     7     8    1
    16     8    14    1
    17     8    15    1
