@<TRIPOS>MOLECULE
IMPHY017128
 23 22 0 0 0
SMALL
GASTEIGER

@<TRIPOS>ATOM
      1 O           7.1962   -0.2500    0.0000 O.3     1  UNL1       -0.4677
      2 O           2.8660    0.2500    0.0000 O.3     1  UNL1       -0.4679
      3 O           6.3301    1.2500    0.0000 O.2     1  UNL1       -0.2505
      4 O           3.7320   -1.2500    0.0000 O.2     1  UNL1       -0.2508
      5 C           5.4641   -0.2500    0.0000 C.3     1  UNL1        0.0636
      6 C           4.5981    0.2500    0.0000 C.3     1  UNL1        0.0575
      7 C           5.4641   -1.2500    0.0000 C.3     1  UNL1       -0.0518
      8 C           6.3301    0.2500    0.0000 C.2     1  UNL1        0.3102
      9 C           3.7320   -0.2500    0.0000 C.2     1  UNL1        0.3076
     10 C           8.0622    0.2500    0.0000 C.3     1  UNL1        0.0817
     11 C           2.0000   -0.2500    0.0000 C.3     1  UNL1        0.0817
     12 H           6.0010   -0.5600    0.0000 H       1  UNL1        0.0416
     13 H           4.9966    0.7249    0.0000 H       1  UNL1        0.0385
     14 H           4.1996    0.7249    0.0000 H       1  UNL1        0.0385
     15 H           4.8441   -1.2500    0.0000 H       1  UNL1        0.0238
     16 H           5.4641   -1.8700    0.0000 H       1  UNL1        0.0238
     17 H           6.0841   -1.2500    0.0000 H       1  UNL1        0.0238
     18 H           8.3722   -0.2869    0.0000 H       1  UNL1        0.0661
     19 H           8.5991    0.5600    0.0000 H       1  UNL1        0.0661
     20 H           7.7522    0.7869    0.0000 H       1  UNL1        0.0661
     21 H           1.6900    0.2869    0.0000 H       1  UNL1        0.0661
     22 H           1.4631   -0.5600    0.0000 H       1  UNL1        0.0661
     23 H           2.3100   -0.7869    0.0000 H       1  UNL1        0.0661
@<TRIPOS>BOND
     1     1     8    1
     2     1    10    1
     3     2     9    1
     4     2    11    1
     5     3     8    2
     6     4     9    2
     7     5     6    1
     8     5     7    1
     9     5     8    1
    10     5    12    1
    11     6     9    1
    12     6    13    1
    13     6    14    1
    14     7    15    1
    15     7    16    1
    16     7    17    1
    17    10    18    1
    18    10    19    1
    19    10    20    1
    20    11    21    1
    21    11    22    1
    22    11    23    1
