@<TRIPOS>MOLECULE
IMPHY008531
 61 61 0 0 0
SMALL
GASTEIGER

@<TRIPOS>ATOM
      1 CL          9.5482    5.6200    0.0000 Cl      1  UNL1       -0.1454
      2 S           2.5981    5.6200    0.0000 S.3     2  UNL2       -0.1275
      3 O           0.0000    7.1200    0.0000 O.3     2  UNL2       -0.3947
      4 O           2.5981    8.6200    0.0000 O.2     2  UNL2       -0.2920
      5 O           3.4641    5.1200    0.0000 O.2     2  UNL2       -0.2790
      6 O           6.9282   10.1200    0.0000 O.3     2  UNL2       -0.4951
      7 N           2.5981    3.6200    0.0000 N.am    2  UNL2       -0.2727
      8 N           4.3301    0.6200    0.0000 N.ar    2  UNL2       -0.2177
      9 N           5.1962    2.1200    0.0000 N.ar    2  UNL2       -0.2401
     10 N           2.5981    0.6200    0.0000 N.pl3   2  UNL2       -0.3428
     11 C           1.7320    4.1200    0.0000 C.2     2  UNL2        0.0199
     12 C           1.7320    5.1200    0.0000 C.2     2  UNL2        0.0046
     13 C           2.5981    2.6200    0.0000 C.3     2  UNL2        0.0490
     14 C           0.8660    5.6200    0.0000 C.3     2  UNL2        0.0030
     15 C           2.5981    6.6200    0.0000 C.3     2  UNL2        0.0051
     16 C           3.4641    2.1200    0.0000 C.ar    2  UNL2        0.0278
     17 C           3.4641    7.1200    0.0000 C.3     2  UNL2        0.0198
     18 C           0.8660    3.6200    0.0000 C.3     2  UNL2       -0.0255
     19 C           0.8660    6.6200    0.0000 C.3     2  UNL2        0.0487
     20 C           3.4641    8.1200    0.0000 C.2     2  UNL2        0.1640
     21 C           3.4641    1.1200    0.0000 C.ar    2  UNL2        0.1244
     22 C           3.4641    4.1200    0.0000 C.2     2  UNL2        0.2068
     23 C           4.3301    2.6200    0.0000 C.ar    2  UNL2        0.0376
     24 C           4.3301    8.6200    0.0000 C.ar    2  UNL2        0.0176
     25 C           5.1962    8.1200    0.0000 C.ar    2  UNL2       -0.0478
     26 C           4.3301    9.6200    0.0000 C.ar    2  UNL2       -0.0478
     27 C           5.1962    1.1200    0.0000 C.ar    2  UNL2        0.1280
     28 C           6.0622    8.6200    0.0000 C.ar    2  UNL2       -0.0193
     29 C           5.1962   10.1200    0.0000 C.ar    2  UNL2       -0.0193
     30 C           6.0622    9.6200    0.0000 C.ar    2  UNL2        0.1201
     31 C           6.0622    0.6200    0.0000 C.3     2  UNL2       -0.0046
     32 C           6.9282   11.1200    0.0000 C.3     2  UNL2        0.0788
     33 H           1.9875    2.7277    0.0000 H       2  UNL2        0.0519
     34 H           2.3860    2.0374    0.0000 H       2  UNL2        0.0519
     35 H           0.2554    5.7277    0.0000 H       2  UNL2        0.0341
     36 H           0.6540    5.0374    0.0000 H       2  UNL2        0.0341
     37 H           2.3860    7.2026    0.0000 H       2  UNL2        0.0384
     38 H           1.9875    6.5123    0.0000 H       2  UNL2        0.0384
     39 H           3.6762    6.5374    0.0000 H       2  UNL2        0.0353
     40 H           4.0747    7.2277    0.0000 H       2  UNL2        0.0353
     41 H           0.5560    4.1569    0.0000 H       2  UNL2        0.0290
     42 H           0.3291    3.3100    0.0000 H       2  UNL2        0.0290
     43 H           1.1760    3.0831    0.0000 H       2  UNL2        0.0290
     44 H           1.4766    6.5123    0.0000 H       2  UNL2        0.0560
     45 H           1.0781    7.2026    0.0000 H       2  UNL2        0.0560
     46 H           4.0010    3.8100    0.0000 H       2  UNL2        0.1257
     47 H           4.3301    3.2400    0.0000 H       2  UNL2        0.0834
     48 H           5.1962    7.5000    0.0000 H       2  UNL2        0.0626
     49 H           3.7932    9.9300    0.0000 H       2  UNL2        0.0626
     50 H           0.0000    7.7400    0.0000 H       2  UNL2        0.2094
     51 H           2.5981    0.0000    0.0000 H       2  UNL2        0.1437
     52 H           2.0611    0.9300    0.0000 H       2  UNL2        0.1437
     53 H           6.5991    8.3100    0.0000 H       2  UNL2        0.0654
     54 H           5.1962   10.7400    0.0000 H       2  UNL2        0.0654
     55 H           5.7522    0.0831    0.0000 H       2  UNL2        0.0308
     56 H           6.5991    0.3100    0.0000 H       2  UNL2        0.0308
     57 H           6.3722    1.1569    0.0000 H       2  UNL2        0.0308
     58 H           7.5482   11.1200    0.0000 H       2  UNL2        0.0660
     59 H           6.9282   11.7400    0.0000 H       2  UNL2        0.0660
     60 H           6.3082   11.1200    0.0000 H       2  UNL2        0.0660
     61 H          10.5482    5.6200    0.0000 H       1  UNL1        0.1454
@<TRIPOS>BOND
     1     1    61    1
     2     2    12    1
     3     2    15    1
     4     3    19    1
     5     3    50    1
     6     4    20    2
     7     5    22    2
     8     6    30    1
     9     6    32    1
    10     7    11    1
    11     7    13    1
    12     7    22   am
    13     8    21   ar
    14     8    27   ar
    15     9    23   ar
    16     9    27   ar
    17    10    21    1
    18    10    51    1
    19    10    52    1
    20    11    12    2
    21    11    18    1
    22    12    14    1
    23    13    16    1
    24    13    33    1
    25    13    34    1
    26    14    19    1
    27    14    35    1
    28    14    36    1
    29    15    17    1
    30    15    37    1
    31    15    38    1
    32    16    21   ar
    33    16    23   ar
    34    17    20    1
    35    17    39    1
    36    17    40    1
    37    18    41    1
    38    18    42    1
    39    18    43    1
    40    19    44    1
    41    19    45    1
    42    20    24    1
    43    22    46    1
    44    23    47    1
    45    24    25   ar
    46    24    26   ar
    47    25    28   ar
    48    25    48    1
    49    26    29   ar
    50    26    49    1
    51    27    31    1
    52    28    30   ar
    53    28    53    1
    54    29    30   ar
    55    29    54    1
    56    31    55    1
    57    31    56    1
    58    31    57    1
    59    32    58    1
    60    32    59    1
    61    32    60    1
