@<TRIPOS>MOLECULE
IMPHY017880
 46 46 0 0 0
SMALL
GASTEIGER

@<TRIPOS>ATOM
      1 O           2.8660   -1.0000    0.0000 O.3     1  UNL1       -0.4610
      2 O           8.0622    1.0000    0.0000 O.2     1  UNL1       -0.2921
      3 O           3.7320   -2.5000    0.0000 O.2     1  UNL1       -0.2512
      4 C           3.7320    0.5000    0.0000 C.3     1  UNL1       -0.0061
      5 C           3.7320   -0.5000    0.0000 C.3     1  UNL1        0.1090
      6 C           4.5981    1.0000    0.0000 C.3     1  UNL1       -0.0430
      7 C           5.4641    0.5000    0.0000 C.3     1  UNL1       -0.0241
      8 C           4.5981   -1.0000    0.0000 C.3     1  UNL1        0.0031
      9 C           2.8660    1.0000    0.0000 C.3     1  UNL1       -0.0590
     10 C           6.3301    1.0000    0.0000 C.2     1  UNL1       -0.0059
     11 C           5.4641   -0.5000    0.0000 C.2     1  UNL1       -0.0811
     12 C           6.3301   -1.0000    0.0000 C.2     1  UNL1       -0.0690
     13 C           7.1962   -0.5000    0.0000 C.3     1  UNL1        0.0310
     14 C           7.1962    0.5000    0.0000 C.2     1  UNL1        0.1631
     15 C           6.3301    2.0000    0.0000 C.2     1  UNL1       -0.0692
     16 C           6.3301   -2.0000    0.0000 C.3     1  UNL1       -0.0434
     17 C           2.8660   -2.0000    0.0000 C.2     1  UNL1        0.3042
     18 C           7.1962    2.5000    0.0000 C.3     1  UNL1       -0.0434
     19 C           5.4641    2.5000    0.0000 C.3     1  UNL1       -0.0434
     20 C           2.0000   -2.5000    0.0000 C.3     1  UNL1        0.0332
     21 H           3.7320    1.1200    0.0000 H       1  UNL1        0.0334
     22 H           3.7320   -1.1200    0.0000 H       1  UNL1        0.0739
     23 H           4.9966    1.4750    0.0000 H       1  UNL1        0.0272
     24 H           4.1996    1.4750    0.0000 H       1  UNL1        0.0272
     25 H           5.0656    0.0251    0.0000 H       1  UNL1        0.0314
     26 H           5.8626    0.0251    0.0000 H       1  UNL1        0.0314
     27 H           4.1996   -1.4750    0.0000 H       1  UNL1        0.0343
     28 H           4.9966   -1.4750    0.0000 H       1  UNL1        0.0343
     29 H           3.1760    1.5369    0.0000 H       1  UNL1        0.0234
     30 H           2.3291    1.3100    0.0000 H       1  UNL1        0.0234
     31 H           2.5560    0.4631    0.0000 H       1  UNL1        0.0234
     32 H           5.0656   -0.0251    0.0000 H       1  UNL1        0.0573
     33 H           7.4082   -1.0826    0.0000 H       1  UNL1        0.0390
     34 H           7.8067   -0.3923    0.0000 H       1  UNL1        0.0390
     35 H           5.7101   -2.0000    0.0000 H       1  UNL1        0.0274
     36 H           6.3301   -2.6200    0.0000 H       1  UNL1        0.0274
     37 H           6.9501   -2.0000    0.0000 H       1  UNL1        0.0274
     38 H           7.5062    1.9631    0.0000 H       1  UNL1        0.0274
     39 H           7.7331    2.8100    0.0000 H       1  UNL1        0.0274
     40 H           6.8862    3.0369    0.0000 H       1  UNL1        0.0274
     41 H           5.7741    3.0369    0.0000 H       1  UNL1        0.0274
     42 H           4.9272    2.8100    0.0000 H       1  UNL1        0.0274
     43 H           5.1541    1.9631    0.0000 H       1  UNL1        0.0274
     44 H           1.6900   -1.9631    0.0000 H       1  UNL1        0.0342
     45 H           1.4631   -2.8100    0.0000 H       1  UNL1        0.0342
     46 H           2.3100   -3.0369    0.0000 H       1  UNL1        0.0342
@<TRIPOS>BOND
     1     1     5    1
     2     1    17    1
     3     2    14    2
     4     3    17    2
     5     4     5    1
     6     4     6    1
     7     4     9    1
     8     4    21    1
     9     5     8    1
    10     5    22    1
    11     6     7    1
    12     6    23    1
    13     6    24    1
    14     7    10    1
    15     7    25    1
    16     7    26    1
    17     8    11    1
    18     8    27    1
    19     8    28    1
    20     9    29    1
    21     9    30    1
    22     9    31    1
    23    10    14    1
    24    10    15    2
    25    11    12    2
    26    11    32    1
    27    12    13    1
    28    12    16    1
    29    13    14    1
    30    13    33    1
    31    13    34    1
    32    15    18    1
    33    15    19    1
    34    16    35    1
    35    16    36    1
    36    16    37    1
    37    17    20    1
    38    18    38    1
    39    18    39    1
    40    18    40    1
    41    19    41    1
    42    19    42    1
    43    19    43    1
    44    20    44    1
    45    20    45    1
    46    20    46    1
