@<TRIPOS>MOLECULE
IMPHY009971
 47 49 0 0 0
SMALL
GASTEIGER

@<TRIPOS>ATOM
      1 O           5.5220    0.5159    0.0000 O.3     1  UNL1       -0.4595
      2 O           2.9239    0.0159    0.0000 O.3     1  UNL1       -0.4640
      3 O           4.8668   -2.6630    0.0000 O.3     1  UNL1       -0.3872
      4 O           6.9662   -0.5716    0.0000 O.2     1  UNL1       -0.2504
      5 O           2.0000   -1.3667    0.0000 O.2     1  UNL1       -0.2504
      6 N           4.8651    2.9878    0.0000 N.3     1  UNL1       -0.2954
      7 C           4.6559    2.0160    0.0000 C.3     1  UNL1        0.0534
      8 C           3.7899    1.5159    0.0000 C.3     1  UNL1        0.0135
      9 C           5.5220    1.5159    0.0000 C.3     1  UNL1        0.1200
     10 C           4.7748    1.3008    0.0000 C.3     1  UNL1       -0.0327
     11 C           5.3695    2.1149    0.0000 C.3     1  UNL1       -0.0003
     12 C           5.8539    3.0908    0.0000 C.3     1  UNL1        0.0027
     13 C           6.2590    2.1830    0.0000 C.3     1  UNL1       -0.0014
     14 C           3.7899    0.5159    0.0000 C.3     1  UNL1        0.0969
     15 C           4.6310   -1.6912    0.0000 C.3     1  UNL1        0.0885
     16 C           5.1310   -0.8251    0.0000 C.3     1  UNL1        0.0828
     17 C           3.6310   -1.6912    0.0000 C.3     1  UNL1        0.0828
     18 C           5.9970   -0.3251    0.0000 C.2     1  UNL1        0.3130
     19 C           2.9239   -0.9841    0.0000 C.2     1  UNL1        0.3127
     20 C           5.6028   -1.9269    0.0000 C.3     1  UNL1       -0.0345
     21 C           4.4239   -0.1180    0.0000 C.3     1  UNL1       -0.0496
     22 C           3.2483   -2.6150    0.0000 C.3     1  UNL1       -0.0496
     23 H           4.1548    2.3810    0.0000 H       1  UNL1        0.0503
     24 H           3.2530    1.8260    0.0000 H       1  UNL1        0.0350
     25 H           6.0887    1.2645    0.0000 H       1  UNL1        0.0750
     26 H           4.5601    0.7192    0.0000 H       1  UNL1        0.0282
     27 H           5.3212    1.0078    0.0000 H       1  UNL1        0.0282
     28 H           5.8148    1.6835    0.0000 H       1  UNL1        0.0427
     29 H           5.8583    2.4963    0.0000 H       1  UNL1        0.0427
     30 H           6.4435    3.2826    0.0000 H       1  UNL1        0.0428
     31 H           5.7251    3.6973    0.0000 H       1  UNL1        0.0428
     32 H           6.6244    1.6822    0.0000 H       1  UNL1        0.0314
     33 H           6.7955    2.4938    0.0000 H       1  UNL1        0.0314
     34 H           4.0020   -0.0667    0.0000 H       1  UNL1        0.0701
     35 H           4.4005    0.6236    0.0000 H       1  UNL1        0.0701
     36 H           4.5163   -0.9061    0.0000 H       1  UNL1        0.0439
     37 H           3.0229   -1.8121    0.0000 H       1  UNL1        0.0439
     38 H           5.4566   -2.5294    0.0000 H       1  UNL1        0.0258
     39 H           6.2053   -2.0731    0.0000 H       1  UNL1        0.0258
     40 H           5.7490   -1.3244    0.0000 H       1  UNL1        0.0258
     41 H           4.8623    0.3204    0.0000 H       1  UNL1        0.0238
     42 H           3.9855    0.3204    0.0000 H       1  UNL1        0.0238
     43 H           3.9855   -0.5564    0.0000 H       1  UNL1        0.0238
     44 H           2.6755   -2.3778    0.0000 H       1  UNL1        0.0238
     45 H           3.0110   -3.1878    0.0000 H       1  UNL1        0.0238
     46 H           3.8211   -2.8523    0.0000 H       1  UNL1        0.0238
     47 H           4.4180   -3.0908    0.0000 H       1  UNL1        0.2102
@<TRIPOS>BOND
     1     1     9    1
     2     1    18    1
     3     2    14    1
     4     2    19    1
     5     3    15    1
     6     3    47    1
     7     4    18    2
     8     5    19    2
     9     6     7    1
    10     6    11    1
    11     6    12    1
    12     7     8    1
    13     7     9    1
    14     7    23    1
    15     8    10    1
    16     8    14    1
    17     8    24    1
    18     9    13    1
    19     9    25    1
    20    10    11    1
    21    10    26    1
    22    10    27    1
    23    11    28    1
    24    11    29    1
    25    12    13    1
    26    12    30    1
    27    12    31    1
    28    13    32    1
    29    13    33    1
    30    14    34    1
    31    14    35    1
    32    15    16    1
    33    15    17    1
    34    15    20    1
    35    16    18    1
    36    16    21    1
    37    16    36    1
    38    17    19    1
    39    17    22    1
    40    17    37    1
    41    20    38    1
    42    20    39    1
    43    20    40    1
    44    21    41    1
    45    21    42    1
    46    21    43    1
    47    22    44    1
    48    22    45    1
    49    22    46    1
