@<TRIPOS>MOLECULE
IMPHY002167
 54 56 0 0 0
SMALL
GASTEIGER

@<TRIPOS>ATOM
      1 O           2.5381   -1.2608    0.0000 O.3     1  UNL1       -0.3912
      2 O           4.3283   -3.0033    0.0000 O.3     1  UNL1       -0.3944
      3 C           5.2022    0.2633    0.0000 C.3     1  UNL1       -0.0217
      4 C           5.2022   -0.7367    0.0000 C.3     1  UNL1       -0.0218
      5 C           6.0682    0.7633    0.0000 C.3     1  UNL1       -0.0142
      6 C           4.3083   -1.2714    0.0000 C.3     1  UNL1        0.0206
      7 C           4.3083    0.7980    0.0000 C.3     1  UNL1       -0.0444
      8 C           3.4022   -0.7575    0.0000 C.3     1  UNL1        0.0630
      9 C           6.0682   -1.2367    0.0000 C.3     1  UNL1       -0.0305
     10 C           6.9343    0.2633    0.0000 C.2     1  UNL1       -0.0690
     11 C           3.4022    0.2841    0.0000 C.3     1  UNL1       -0.0257
     12 C           6.0522    1.8048    0.0000 C.3     1  UNL1       -0.0452
     13 C           5.2022    1.2633    0.0000 C.3     1  UNL1       -0.0587
     14 C           7.8443    0.7701    0.0000 C.3     1  UNL1       -0.0226
     15 C           7.8523    1.8117    0.0000 C.3     1  UNL1       -0.0106
     16 C           6.9343   -0.7367    0.0000 C.2     1  UNL1       -0.0842
     17 C           6.9502    2.3326    0.0000 C.3     1  UNL1       -0.0433
     18 C           3.8183   -2.1431    0.0000 C.3     1  UNL1        0.0522
     19 C           4.8183   -2.1316    0.0000 C.3     1  UNL1       -0.0548
     20 C           8.8523    1.8079    0.0000 C.3     1  UNL1       -0.0558
     21 C           8.3556    2.6758    0.0000 C.2     1  UNL1       -0.0849
     22 C           7.8590    3.5438    0.0000 C.2     1  UNL1       -0.1021
     23 H           5.2088   -1.5867    0.0000 H       1  UNL1        0.0316
     24 H           6.8011    1.1940    0.0000 H       1  UNL1        0.0351
     25 H           4.7129    1.2678    0.0000 H       1  UNL1        0.0272
     26 H           3.9147    1.2770    0.0000 H       1  UNL1        0.0272
     27 H           2.8647   -0.4486    0.0000 H       1  UNL1        0.0599
     28 H           5.6697   -1.7116    0.0000 H       1  UNL1        0.0310
     29 H           6.4668   -1.7116    0.0000 H       1  UNL1        0.0310
     30 H           3.1932    0.8678    0.0000 H       1  UNL1        0.0290
     31 H           2.7914    0.1780    0.0000 H       1  UNL1        0.0290
     32 H           5.8342    2.3852    0.0000 H       1  UNL1        0.0271
     33 H           5.4431    1.6893    0.0000 H       1  UNL1        0.0271
     34 H           5.8222    1.2633    0.0000 H       1  UNL1        0.0235
     35 H           5.2022    1.8833    0.0000 H       1  UNL1        0.0235
     36 H           4.5822    1.2633    0.0000 H       1  UNL1        0.0235
     37 H           8.0488    0.1849    0.0000 H       1  UNL1        0.0318
     38 H           8.4559    0.8715    0.0000 H       1  UNL1        0.0318
     39 H           7.4712   -1.0467    0.0000 H       1  UNL1        0.0572
     40 H           7.3475    2.8085    0.0000 H       1  UNL1        0.0274
     41 H           6.5493    2.8054    0.0000 H       1  UNL1        0.0274
     42 H           3.3388   -1.7501    0.0000 H       1  UNL1        0.0563
     43 H           3.3480   -2.5471    0.0000 H       1  UNL1        0.0563
     44 H           4.2850   -2.4477    0.0000 H       1  UNL1        0.0237
     45 H           5.1344   -2.6649    0.0000 H       1  UNL1        0.0237
     46 H           5.3516   -1.8154    0.0000 H       1  UNL1        0.0237
     47 H           8.8499    1.1879    0.0000 H       1  UNL1        0.0238
     48 H           9.4723    1.8055    0.0000 H       1  UNL1        0.0238
     49 H           8.8547    2.4279    0.0000 H       1  UNL1        0.0238
     50 H           2.0000   -0.9529    0.0000 H       1  UNL1        0.2098
     51 H           8.9756    2.6734    0.0000 H       1  UNL1        0.0572
     52 H           4.0245   -3.5438    0.0000 H       1  UNL1        0.2094
     53 H           8.1710    4.0795    0.0000 H       1  UNL1        0.0532
     54 H           7.2390    3.5462    0.0000 H       1  UNL1        0.0532
@<TRIPOS>BOND
     1     8     1    1
     2     1    50    1
     3     2    18    1
     4     2    52    1
     5     3     4    1
     6     3     5    1
     7     3     7    1
     8     3    13    1
     9     4     6    1
    10     4     9    1
    11     4    23    1
    12     5    10    1
    13     5    12    1
    14     5    24    1
    15     6     8    1
    16     6    18    1
    17     6    19    1
    18     7    11    1
    19     7    25    1
    20     7    26    1
    21     8    11    1
    22     8    27    1
    23     9    16    1
    24     9    28    1
    25     9    29    1
    26    10    14    1
    27    10    16    2
    28    11    30    1
    29    11    31    1
    30    12    17    1
    31    12    32    1
    32    12    33    1
    33    13    34    1
    34    13    35    1
    35    13    36    1
    36    14    15    1
    37    14    37    1
    38    14    38    1
    39    15    17    1
    40    15    20    1
    41    15    21    1
    42    16    39    1
    43    17    40    1
    44    17    41    1
    45    18    42    1
    46    18    43    1
    47    19    44    1
    48    19    45    1
    49    19    46    1
    50    20    47    1
    51    20    48    1
    52    20    49    1
    53    21    22    2
    54    21    51    1
    55    22    53    1
    56    22    54    1
