@<TRIPOS>MOLECULE
IMPHY005068
 55 58 0 0 0
SMALL
GASTEIGER

@<TRIPOS>ATOM
      1 O           2.3052   -2.0858    0.0000 O.3     1  UNL1       -0.3945
      2 C           6.5090    0.4052    0.0000 C.3     1  UNL1       -0.0254
      3 C           5.6405    0.9009    0.0000 C.3     1  UNL1       -0.0297
      4 C           4.7330    0.3895    0.0000 C.3     1  UNL1       -0.0253
      5 C           4.7302   -0.6521    0.0000 C.3     1  UNL1       -0.0279
      6 C           6.4845    1.5866    0.0000 C.3     1  UNL1       -0.0440
      7 C           7.1606    2.5556    0.0000 C.3     1  UNL1       -0.0379
      8 C           7.4380    0.7752    0.0000 C.3     1  UNL1       -0.0442
      9 C           6.5302   -0.6362    0.0000 C.3     1  UNL1       -0.0468
     10 C           5.4865    1.8890    0.0000 C.3     1  UNL1       -0.0489
     11 C           7.7280    1.7322    0.0000 C.3     1  UNL1       -0.0405
     12 C           5.6349   -1.1684    0.0000 C.3     1  UNL1       -0.0486
     13 C           3.7975   -1.2065    0.0000 C.3     1  UNL1       -0.0056
     14 C           6.1630    2.6254    0.0000 C.3     1  UNL1       -0.0497
     15 C           3.8034    0.9490    0.0000 C.3     1  UNL1       -0.0471
     16 C           4.7358    1.3895    0.0000 C.3     1  UNL1       -0.0590
     17 C           2.8552   -0.6687    0.0000 C.3     1  UNL1       -0.0452
     18 C           2.8582    0.4163    0.0000 C.3     1  UNL1       -0.0520
     19 C           8.7161    1.8862    0.0000 C.3     1  UNL1       -0.0621
     20 C           3.3052   -2.0769    0.0000 C.3     1  UNL1        0.0498
     21 C           4.3052   -2.0681    0.0000 C.3     1  UNL1       -0.0572
     22 H           6.3404    1.3832    0.0000 H       1  UNL1        0.0311
     23 H           4.7377   -1.5021    0.0000 H       1  UNL1        0.0312
     24 H           6.1103    2.0809    0.0000 H       1  UNL1        0.0273
     25 H           5.8988    1.3831    0.0000 H       1  UNL1        0.0273
     26 H           7.5819    3.2939    0.0000 H       1  UNL1        0.0304
     27 H           7.5335    0.1626    0.0000 H       1  UNL1        0.0273
     28 H           8.0565    0.7319    0.0000 H       1  UNL1        0.0273
     29 H           6.7512   -1.2155    0.0000 H       1  UNL1        0.0271
     30 H           7.1388   -0.5177    0.0000 H       1  UNL1        0.0271
     31 H           5.1347    2.3995    0.0000 H       1  UNL1        0.0268
     32 H           4.9105    1.6596    0.0000 H       1  UNL1        0.0268
     33 H           8.2857    1.0907    0.0000 H       1  UNL1        0.0301
     34 H           5.2399   -1.6464    0.0000 H       1  UNL1        0.0268
     35 H           6.0382   -1.6393    0.0000 H       1  UNL1        0.0268
     36 H           6.3428    3.2188    0.0000 H       1  UNL1        0.0268
     37 H           5.6246    2.9327    0.0000 H       1  UNL1        0.0268
     38 H           4.2093    1.4176    0.0000 H       1  UNL1        0.0271
     39 H           3.4111    1.4291    0.0000 H       1  UNL1        0.0271
     40 H           5.3557    1.3878    0.0000 H       1  UNL1        0.0235
     41 H           4.7374    2.0095    0.0000 H       1  UNL1        0.0235
     42 H           4.1158    1.3912    0.0000 H       1  UNL1        0.0235
     43 H           2.2446   -0.5609    0.0000 H       1  UNL1        0.0271
     44 H           2.6446   -1.2518    0.0000 H       1  UNL1        0.0271
     45 H           2.6507    1.0006    0.0000 H       1  UNL1        0.0266
     46 H           2.2470    0.3119    0.0000 H       1  UNL1        0.0266
     47 H           8.8116    1.2736    0.0000 H       1  UNL1        0.0233
     48 H           9.3287    1.9817    0.0000 H       1  UNL1        0.0233
     49 H           8.6206    2.4988    0.0000 H       1  UNL1        0.0233
     50 H           3.2029   -2.6884    0.0000 H       1  UNL1        0.0562
     51 H           3.8897   -2.2838    0.0000 H       1  UNL1        0.0562
     52 H           3.7710   -2.3828    0.0000 H       1  UNL1        0.0236
     53 H           4.6199   -2.6022    0.0000 H       1  UNL1        0.0236
     54 H           4.8393   -1.7533    0.0000 H       1  UNL1        0.0236
     55 H           2.0000   -2.6254    0.0000 H       1  UNL1        0.2094
@<TRIPOS>BOND
     1     1    20    1
     2     1    55    1
     3     2     3    1
     4     2     6    1
     5     2     8    1
     6     2     9    1
     7     3     4    1
     8     3    10    1
     9     3    22    1
    10     4     5    1
    11     4    15    1
    12     4    16    1
    13     5    12    1
    14     5    13    1
    15     5    23    1
    16     6     7    1
    17     6    24    1
    18     6    25    1
    19     7    11    1
    20     7    14    1
    21     7    26    1
    22     8    11    1
    23     8    27    1
    24     8    28    1
    25     9    12    1
    26     9    29    1
    27     9    30    1
    28    10    14    1
    29    10    31    1
    30    10    32    1
    31    11    19    1
    32    11    33    1
    33    12    34    1
    34    12    35    1
    35    13    17    1
    36    13    20    1
    37    13    21    1
    38    14    36    1
    39    14    37    1
    40    15    18    1
    41    15    38    1
    42    15    39    1
    43    16    40    1
    44    16    41    1
    45    16    42    1
    46    17    18    1
    47    17    43    1
    48    17    44    1
    49    18    45    1
    50    18    46    1
    51    19    47    1
    52    19    48    1
    53    19    49    1
    54    20    50    1
    55    20    51    1
    56    21    52    1
    57    21    53    1
    58    21    54    1
