@<TRIPOS>MOLECULE
IMPHY010954
 27 28 0 0 0
SMALL
GASTEIGER

@<TRIPOS>ATOM
      1 O           7.2514   -1.2755    0.0000 O.3     1  UNL1       -0.3360
      2 O           7.2514   -0.0999    0.0000 O.2     1  UNL1       -0.4568
      3 C           8.0604   -0.6877    0.0000 C.3     1  UNL1        0.2328
      4 C           8.8694   -1.2755    0.0000 C.3     1  UNL1        0.0191
      5 C           8.5604   -2.2266    0.0000 C.3     1  UNL1       -0.0230
      6 C           7.5604   -2.2266    0.0000 C.3     1  UNL1        0.0525
      7 C           8.8694   -0.0999    0.0000 C.2     1  UNL1       -0.0098
      8 C           8.5604    0.8511    0.0000 C.2     1  UNL1       -0.0170
      9 C           7.5604    0.8511    0.0000 C.2     1  UNL1        0.1326
     10 C           6.9726    1.6602    0.0000 C.2     1  UNL1        0.0312
     11 C           5.9781    1.5556    0.0000 C.1     1  UNL1       -0.0567
     12 C           4.9836    1.4511    0.0000 C.1     1  UNL1       -0.0100
     13 C           3.9890    1.3466    0.0000 C.1     1  UNL1       -0.0148
     14 C           2.9945    1.2420    0.0000 C.1     1  UNL1       -0.0918
     15 C           2.0000    1.1375    0.0000 C.3     1  UNL1       -0.0016
     16 H           9.4358   -1.5277    0.0000 H       1  UNL1        0.0333
     17 H           9.1794   -0.7386    0.0000 H       1  UNL1        0.0333
     18 H           8.4956   -2.8432    0.0000 H       1  UNL1        0.0289
     19 H           9.1668   -2.3554    0.0000 H       1  UNL1        0.0289
     20 H           6.9539   -2.3554    0.0000 H       1  UNL1        0.0561
     21 H           7.6252   -2.8432    0.0000 H       1  UNL1        0.0561
     22 H           9.4591   -0.2915    0.0000 H       1  UNL1        0.0638
     23 H           8.9248    1.3527    0.0000 H       1  UNL1        0.0653
     24 H           7.2248    2.2266    0.0000 H       1  UNL1        0.0749
     25 H           1.9352    1.7541    0.0000 H       1  UNL1        0.0362
     26 H           1.3834    1.0727    0.0000 H       1  UNL1        0.0362
     27 H           2.0648    0.5209    0.0000 H       1  UNL1        0.0362
@<TRIPOS>BOND
     1     1     3    1
     2     1     6    1
     3     2     3    1
     4     2     9    1
     5     3     4    1
     6     3     7    1
     7     4     5    1
     8     4    16    1
     9     4    17    1
    10     5     6    1
    11     5    18    1
    12     5    19    1
    13     6    20    1
    14     6    21    1
    15     7     8    2
    16     7    22    1
    17     8     9    1
    18     8    23    1
    19     9    10    2
    20    10    11    1
    21    10    24    1
    22    11    12    3
    23    12    13    1
    24    13    14    3
    25    14    15    1
    26    15    25    1
    27    15    26    1
    28    15    27    1
