@<TRIPOS>MOLECULE
IMPHY014521
 32 31 0 0 0
SMALL
GASTEIGER

@<TRIPOS>ATOM
      1 O           4.5981    1.3100    0.0000 O.2     1  UNL1       -0.2709
      2 N           5.4641    2.8100    0.0000 N.am    1  UNL1       -0.3116
      3 C           7.1962    2.8100    0.0000 C.3     1  UNL1       -0.0311
      4 C           6.3301    2.3100    0.0000 C.3     1  UNL1        0.0142
      5 C           8.0622    2.3100    0.0000 C.3     1  UNL1       -0.0612
      6 C           7.1962    3.8100    0.0000 C.3     1  UNL1       -0.0612
      7 C           4.5981    2.3100    0.0000 C.2     1  UNL1        0.2366
      8 C           2.8660    1.3100    0.0000 C.3     1  UNL1       -0.0234
      9 C           3.7320    2.8100    0.0000 C.2     1  UNL1       -0.0038
     10 C           2.8660    2.3100    0.0000 C.2     1  UNL1       -0.0782
     11 C           2.0000    0.8100    0.0000 C.3     1  UNL1        0.0135
     12 C           2.0000   -0.1900    0.0000 C.1     1  UNL1       -0.0881
     13 C           2.0000   -1.1900    0.0000 C.1     1  UNL1       -0.0151
     14 C           2.0000   -2.1900    0.0000 C.1     1  UNL1       -0.0182
     15 C           2.0000   -3.1900    0.0000 C.1     1  UNL1       -0.1053
     16 H           6.6592    3.1200    0.0000 H       1  UNL1        0.0311
     17 H           5.9316    1.8350    0.0000 H       1  UNL1        0.0465
     18 H           6.7287    1.8350    0.0000 H       1  UNL1        0.0465
     19 H           7.7522    1.7731    0.0000 H       1  UNL1        0.0233
     20 H           8.5991    2.0000    0.0000 H       1  UNL1        0.0233
     21 H           8.3722    2.8469    0.0000 H       1  UNL1        0.0233
     22 H           7.8162    3.8100    0.0000 H       1  UNL1        0.0233
     23 H           7.1962    4.4300    0.0000 H       1  UNL1        0.0233
     24 H           6.5762    3.8100    0.0000 H       1  UNL1        0.0233
     25 H           5.4641    3.4300    0.0000 H       1  UNL1        0.1490
     26 H           3.0781    0.7274    0.0000 H       1  UNL1        0.0316
     27 H           3.4766    1.4177    0.0000 H       1  UNL1        0.0316
     28 H           3.7320    3.4300    0.0000 H       1  UNL1        0.0666
     29 H           2.3291    2.6200    0.0000 H       1  UNL1        0.0574
     30 H           1.7880    1.3926    0.0000 H       1  UNL1        0.0401
     31 H           1.3894    0.7023    0.0000 H       1  UNL1        0.0401
     32 H           2.0000   -3.8100    0.0000 H       1  UNL1        0.1238
@<TRIPOS>BOND
     1     1     7    2
     2     2     4    1
     3     2     7   am
     4     2    25    1
     5     3     4    1
     6     3     5    1
     7     3     6    1
     8     3    16    1
     9     4    17    1
    10     4    18    1
    11     5    19    1
    12     5    20    1
    13     5    21    1
    14     6    22    1
    15     6    23    1
    16     6    24    1
    17     7     9    1
    18     8    10    1
    19     8    11    1
    20     8    26    1
    21     8    27    1
    22     9    10    2
    23     9    28    1
    24    10    29    1
    25    11    12    1
    26    11    30    1
    27    11    31    1
    28    12    13    3
    29    13    14    1
    30    14    15    3
    31    15    32    1
