@<TRIPOS>MOLECULE
IMPHY017045
 38 37 0 0 0
SMALL
GASTEIGER

@<TRIPOS>ATOM
      1 O           9.7942   -0.2500    0.0000 O.3     1  UNL1       -0.4646
      2 O          10.6603    1.2500    0.0000 O.2     1  UNL1       -0.2512
      3 C           7.1962    0.2500    0.0000 C.3     1  UNL1       -0.0474
      4 C           6.3301   -0.2500    0.0000 C.3     1  UNL1       -0.0527
      5 C           8.0622   -0.2500    0.0000 C.3     1  UNL1       -0.0095
      6 C           5.4641    0.2500    0.0000 C.3     1  UNL1       -0.0530
      7 C           4.5981   -0.2500    0.0000 C.3     1  UNL1       -0.0531
      8 C           3.7320    0.2500    0.0000 C.3     1  UNL1       -0.0533
      9 C           8.9282    0.2500    0.0000 C.3     1  UNL1        0.0950
     10 C           8.0622   -1.2500    0.0000 C.3     1  UNL1       -0.0593
     11 C           2.8660   -0.2500    0.0000 C.3     1  UNL1       -0.0559
     12 C           2.0000    0.2500    0.0000 C.3     1  UNL1       -0.0653
     13 C          10.6603    0.2500    0.0000 C.2     1  UNL1        0.3040
     14 C          11.5263   -0.2500    0.0000 C.3     1  UNL1        0.0332
     15 H           7.5947    0.7249    0.0000 H       1  UNL1        0.0269
     16 H           6.7976    0.7249    0.0000 H       1  UNL1        0.0269
     17 H           5.9316   -0.7249    0.0000 H       1  UNL1        0.0265
     18 H           6.7287   -0.7249    0.0000 H       1  UNL1        0.0265
     19 H           7.5252   -0.5600    0.0000 H       1  UNL1        0.0331
     20 H           5.8626    0.7249    0.0000 H       1  UNL1        0.0265
     21 H           5.0656    0.7249    0.0000 H       1  UNL1        0.0265
     22 H           4.1996   -0.7249    0.0000 H       1  UNL1        0.0265
     23 H           4.9966   -0.7249    0.0000 H       1  UNL1        0.0265
     24 H           4.1306    0.7249    0.0000 H       1  UNL1        0.0265
     25 H           3.3335    0.7249    0.0000 H       1  UNL1        0.0265
     26 H           9.3267    0.7249    0.0000 H       1  UNL1        0.0700
     27 H           8.5297    0.7249    0.0000 H       1  UNL1        0.0700
     28 H           7.4422   -1.2500    0.0000 H       1  UNL1        0.0233
     29 H           8.0622   -1.8700    0.0000 H       1  UNL1        0.0233
     30 H           8.6822   -1.2500    0.0000 H       1  UNL1        0.0233
     31 H           2.4675   -0.7249    0.0000 H       1  UNL1        0.0263
     32 H           3.2646   -0.7249    0.0000 H       1  UNL1        0.0263
     33 H           2.3100    0.7869    0.0000 H       1  UNL1        0.0230
     34 H           1.4631    0.5600    0.0000 H       1  UNL1        0.0230
     35 H           1.6900   -0.2869    0.0000 H       1  UNL1        0.0230
     36 H          11.2163   -0.7869    0.0000 H       1  UNL1        0.0342
     37 H          12.0632   -0.5600    0.0000 H       1  UNL1        0.0342
     38 H          11.8363    0.2869    0.0000 H       1  UNL1        0.0342
@<TRIPOS>BOND
     1     1     9    1
     2     1    13    1
     3     2    13    2
     4     3     4    1
     5     3     5    1
     6     3    15    1
     7     3    16    1
     8     4     6    1
     9     4    17    1
    10     4    18    1
    11     5     9    1
    12     5    10    1
    13     5    19    1
    14     6     7    1
    15     6    20    1
    16     6    21    1
    17     7     8    1
    18     7    22    1
    19     7    23    1
    20     8    11    1
    21     8    24    1
    22     8    25    1
    23     9    26    1
    24     9    27    1
    25    10    28    1
    26    10    29    1
    27    10    30    1
    28    11    12    1
    29    11    31    1
    30    11    32    1
    31    12    33    1
    32    12    34    1
    33    12    35    1
    34    13    14    1
    35    14    36    1
    36    14    37    1
    37    14    38    1
