@<TRIPOS>MOLECULE
IMPHY006668
 24 24 0 0 0
SMALL
GASTEIGER

@<TRIPOS>ATOM
      1 O           5.4641   -1.4330    0.0000 O.2     1  UNL1       -0.2927
      2 C           3.7320    0.5670    0.0000 C.3     1  UNL1       -0.0242
      3 C           2.8660    0.0670    0.0000 C.3     1  UNL1       -0.0260
      4 C           4.5981    0.0670    0.0000 C.3     1  UNL1        0.0153
      5 C           4.2320    1.4330    0.0000 C.3     1  UNL1       -0.0591
      6 C           3.2320    1.4330    0.0000 C.3     1  UNL1       -0.0591
      7 C           2.8660   -0.9330    0.0000 C.2     1  UNL1       -0.0688
      8 C           4.5981   -0.9330    0.0000 C.2     1  UNL1        0.1566
      9 C           3.7320   -1.4330    0.0000 C.2     1  UNL1       -0.0202
     10 C           2.0000   -1.4330    0.0000 C.3     1  UNL1       -0.0434
     11 H           2.6540    0.6496    0.0000 H       1  UNL1        0.0315
     12 H           2.2554   -0.0407    0.0000 H       1  UNL1        0.0315
     13 H           5.2087   -0.0407    0.0000 H       1  UNL1        0.0350
     14 H           4.8101    0.6496    0.0000 H       1  UNL1        0.0350
     15 H           4.7690    1.1230    0.0000 H       1  UNL1        0.0235
     16 H           4.5420    1.9700    0.0000 H       1  UNL1        0.0235
     17 H           3.7690    1.7430    0.0000 H       1  UNL1        0.0235
     18 H           2.9220    1.9700    0.0000 H       1  UNL1        0.0235
     19 H           2.6951    1.1230    0.0000 H       1  UNL1        0.0235
     20 H           3.6951    1.7430    0.0000 H       1  UNL1        0.0235
     21 H           3.7320   -2.0530    0.0000 H       1  UNL1        0.0652
     22 H           1.6900   -0.8961    0.0000 H       1  UNL1        0.0274
     23 H           1.4631   -1.7430    0.0000 H       1  UNL1        0.0274
     24 H           2.3100   -1.9700    0.0000 H       1  UNL1        0.0274
@<TRIPOS>BOND
     1     1     8    2
     2     2     3    1
     3     2     4    1
     4     2     5    1
     5     2     6    1
     6     3     7    1
     7     3    11    1
     8     3    12    1
     9     4     8    1
    10     4    13    1
    11     4    14    1
    12     5    15    1
    13     5    16    1
    14     5    20    1
    15     6    17    1
    16     6    18    1
    17     6    19    1
    18     7     9    2
    19     7    10    1
    20     8     9    1
    21     9    21    1
    22    10    22    1
    23    10    23    1
    24    10    24    1
