@<TRIPOS>MOLECULE
IMPHY002347
 131 139 0 0 0
SMALL
GASTEIGER

@<TRIPOS>ATOM
      1 O          10.6948    4.0403    0.0000 O.3     1  UNL1       -0.3422
      2 O           8.5123    2.8582    0.0000 O.3     1  UNL1       -0.3850
      3 O           8.9224    4.9351    0.0000 O.3     1  UNL1       -0.3480
      4 O           9.2718   -4.2038    0.0000 O.3     1  UNL1       -0.3451
      5 O           7.5397   -4.2038    0.0000 O.3     1  UNL1       -0.3405
      6 O           9.2718   -6.2038    0.0000 O.3     1  UNL1       -0.3378
      7 O           7.5397   -7.2038    0.0000 O.3     1  UNL1       -0.3864
      8 O           5.8076   -6.2038    0.0000 O.3     1  UNL1       -0.3401
      9 O          10.1378   -4.7038    0.0000 O.3     1  UNL1       -0.3431
     10 O           5.8076   -3.2038    0.0000 O.3     1  UNL1       -0.3924
     11 O           4.8371   -4.7092    0.0000 O.3     1  UNL1       -0.3405
     12 O          11.0038   -7.2038    0.0000 O.3     1  UNL1       -0.3841
     13 O          12.7359   -6.2038    0.0000 O.3     1  UNL1       -0.3864
     14 O           3.8202   -7.0886    0.0000 O.3     1  UNL1       -0.3841
     15 O          12.7359   -4.2038    0.0000 O.3     1  UNL1       -0.3866
     16 O           2.3644   -5.4719    0.0000 O.3     1  UNL1       -0.3864
     17 O           4.0400   -2.7788    0.0000 O.3     1  UNL1       -0.3924
     18 C           9.3010    1.9931    0.0000 C.3     1  UNL1        0.0028
     19 C          10.1690    1.4965    0.0000 C.3     1  UNL1       -0.0271
     20 C           9.5065    2.9657    0.0000 C.3     1  UNL1        0.1051
     21 C          10.1728    0.4965    0.0000 C.3     1  UNL1       -0.0305
     22 C          10.4948    3.0726    0.0000 C.3     1  UNL1        0.0918
     23 C          10.9034    2.1664    0.0000 C.3     1  UNL1       -0.0201
     24 C           9.3087   -0.0069    0.0000 C.3     1  UNL1       -0.0285
     25 C           8.4369    1.4898    0.0000 C.3     1  UNL1       -0.0444
     26 C           9.1042    3.8683    0.0000 C.3     1  UNL1        0.0421
     27 C           8.4408    0.4898    0.0000 C.3     1  UNL1       -0.0486
     28 C           9.2967   -1.0484    0.0000 C.3     1  UNL1       -0.0078
     29 C           9.8371    4.5311    0.0000 C.3     1  UNL1        0.1757
     30 C           8.3155    2.1630    0.0000 C.3     1  UNL1       -0.0566
     31 C          11.0848   -0.0069    0.0000 C.3     1  UNL1       -0.0311
     32 C          10.1967   -1.5727    0.0000 C.2     1  UNL1       -0.0648
     33 C           8.3468   -1.5727    0.0000 C.3     1  UNL1       -0.0413
     34 C           8.1258    4.0750    0.0000 C.3     1  UNL1       -0.0548
     35 C          10.6444    5.1213    0.0000 C.3     1  UNL1        0.0021
     36 C          11.0968   -1.0484    0.0000 C.2     1  UNL1       -0.0839
     37 C           8.4326   -0.5451    0.0000 C.3     1  UNL1       -0.0556
     38 C          10.2093   -2.6576    0.0000 C.3     1  UNL1       -0.0047
     39 C           8.3342   -2.6576    0.0000 C.3     1  UNL1       -0.0254
     40 C          10.5369    6.1155    0.0000 C.3     1  UNL1       -0.0435
     41 C           9.2718   -3.2038    0.0000 C.3     1  UNL1        0.0655
     42 C           8.8149    5.9293    0.0000 C.3     1  UNL1        0.0535
     43 C           9.6221    6.5195    0.0000 C.3     1  UNL1       -0.0201
     44 C           9.5146    7.5138    0.0000 C.3     1  UNL1       -0.0603
     45 C           8.4057   -4.7038    0.0000 C.3     1  UNL1        0.1886
     46 C           8.4057   -5.7038    0.0000 C.3     1  UNL1        0.1406
     47 C           7.5397   -6.2038    0.0000 C.3     1  UNL1        0.1148
     48 C           6.6737   -4.7038    0.0000 C.3     1  UNL1        0.1134
     49 C           6.6737   -5.7038    0.0000 C.3     1  UNL1        0.1184
     50 C           5.8076   -4.2038    0.0000 C.3     1  UNL1        0.0730
     51 C          10.1378   -5.7038    0.0000 C.3     1  UNL1        0.1884
     52 C          11.0038   -6.2038    0.0000 C.3     1  UNL1        0.1341
     53 C           4.9416   -5.7038    0.0000 C.3     1  UNL1        0.1884
     54 C          11.8698   -5.7038    0.0000 C.3     1  UNL1        0.1140
     55 C           4.0281   -6.1105    0.0000 C.3     1  UNL1        0.1341
     56 C          11.0038   -4.2038    0.0000 C.3     1  UNL1        0.0873
     57 C          11.8698   -4.7038    0.0000 C.3     1  UNL1        0.1095
     58 C           3.3590   -5.3673    0.0000 C.3     1  UNL1        0.1141
     59 C           3.8590   -4.5013    0.0000 C.3     1  UNL1        0.1131
     60 C          11.0038   -3.2038    0.0000 C.3     1  UNL1       -0.0361
     61 C           3.4522   -3.5878    0.0000 C.3     1  UNL1        0.0730
     62 H          10.9472    1.1548    0.0000 H       1  UNL1        0.0311
     63 H          10.9040    0.9300    0.0000 H       1  UNL1        0.0310
     64 H          11.3397    3.1658    0.0000 H       1  UNL1        0.0626
     65 H          11.2708    1.6670    0.0000 H       1  UNL1        0.0294
     66 H          11.4387    2.4792    0.0000 H       1  UNL1        0.0294
     67 H          10.0432   -0.4347    0.0000 H       1  UNL1        0.0312
     68 H           8.2226    2.0716    0.0000 H       1  UNL1        0.0272
     69 H           7.8268    1.3798    0.0000 H       1  UNL1        0.0272
     70 H           8.7144    3.3862    0.0000 H       1  UNL1        0.0379
     71 H           7.8298    0.5951    0.0000 H       1  UNL1        0.0268
     72 H           8.2310   -0.0936    0.0000 H       1  UNL1        0.0268
     73 H           8.4208    2.7740    0.0000 H       1  UNL1        0.0236
     74 H           7.7046    2.2683    0.0000 H       1  UNL1        0.0236
     75 H           8.2102    1.5520    0.0000 H       1  UNL1        0.0236
     76 H          11.6968   -0.1059    0.0000 H       1  UNL1        0.0310
     77 H          11.2871    0.5792    0.0000 H       1  UNL1        0.0310
     78 H           8.1463    3.3587    0.0000 H       1  UNL1        0.2103
     79 H           8.1445   -0.9866    0.0000 H       1  UNL1        0.0274
     80 H           7.7347   -1.6717    0.0000 H       1  UNL1        0.0274
     81 H           8.2539    4.6816    0.0000 H       1  UNL1        0.0235
     82 H           7.5192    4.2032    0.0000 H       1  UNL1        0.0235
     83 H           7.9976    3.4684    0.0000 H       1  UNL1        0.0235
     84 H          10.9179    4.5649    0.0000 H       1  UNL1        0.0317
     85 H          11.2399    5.2940    0.0000 H       1  UNL1        0.0317
     86 H          11.6361   -1.3543    0.0000 H       1  UNL1        0.0572
     87 H           8.7446   -0.0093    0.0000 H       1  UNL1        0.0238
     88 H           7.8968   -0.2330    0.0000 H       1  UNL1        0.0238
     89 H           8.1205   -1.0808    0.0000 H       1  UNL1        0.0238
     90 H          10.4251   -3.2389    0.0000 H       1  UNL1        0.0335
     91 H          10.8189   -2.5445    0.0000 H       1  UNL1        0.0335
     92 H           7.7246   -2.5445    0.0000 H       1  UNL1        0.0290
     93 H           8.1184   -3.2389    0.0000 H       1  UNL1        0.0290
     94 H          11.1555    6.0741    0.0000 H       1  UNL1        0.0270
     95 H          10.6851    6.7176    0.0000 H       1  UNL1        0.0270
     96 H           9.8093   -3.5127    0.0000 H       1  UNL1        0.0600
     97 H           8.5414    6.4858    0.0000 H       1  UNL1        0.0563
     98 H           8.2194    5.7567    0.0000 H       1  UNL1        0.0563
     99 H          10.1226    6.8855    0.0000 H       1  UNL1        0.0320
    100 H          10.1310    7.5804    0.0000 H       1  UNL1        0.0233
    101 H           9.4480    8.1302    0.0000 H       1  UNL1        0.0233
    102 H           8.8982    7.4471    0.0000 H       1  UNL1        0.0233
    103 H           8.4057   -4.0838    0.0000 H       1  UNL1        0.0938
    104 H           8.4057   -6.3238    0.0000 H       1  UNL1        0.0675
    105 H           7.0028   -6.5138    0.0000 H       1  UNL1        0.0648
    106 H           6.6737   -4.0838    0.0000 H       1  UNL1        0.0647
    107 H           6.1367   -5.3938    0.0000 H       1  UNL1        0.0651
    108 H           5.1971   -4.0961    0.0000 H       1  UNL1        0.0584
    109 H           5.5956   -4.7864    0.0000 H       1  UNL1        0.0584
    110 H           9.6008   -5.3938    0.0000 H       1  UNL1        0.0938
    111 H           7.0028   -7.5138    0.0000 H       1  UNL1        0.2100
    112 H          10.4669   -6.5138    0.0000 H       1  UNL1        0.0671
    113 H           4.9092   -6.3229    0.0000 H       1  UNL1        0.0938
    114 H           5.2707   -2.8938    0.0000 H       1  UNL1        0.2095
    115 H          12.4068   -5.3938    0.0000 H       1  UNL1        0.0648
    116 H           4.5099   -6.5007    0.0000 H       1  UNL1        0.0671
    117 H          10.4669   -3.8938    0.0000 H       1  UNL1        0.0621
    118 H          11.8698   -4.0838    0.0000 H       1  UNL1        0.0646
    119 H           3.1368   -5.9462    0.0000 H       1  UNL1        0.0648
    120 H           4.2491   -4.0195    0.0000 H       1  UNL1        0.0647
    121 H          11.5407   -7.5138    0.0000 H       1  UNL1        0.2101
    122 H          11.6238   -3.2038    0.0000 H       1  UNL1        0.0255
    123 H          11.0038   -2.5838    0.0000 H       1  UNL1        0.0255
    124 H          10.3838   -3.2038    0.0000 H       1  UNL1        0.0255
    125 H          13.2728   -5.8938    0.0000 H       1  UNL1        0.2100
    126 H           4.2809   -7.5035    0.0000 H       1  UNL1        0.2101
    127 H           3.0215   -3.1418    0.0000 H       1  UNL1        0.0584
    128 H           2.9382   -3.9345    0.0000 H       1  UNL1        0.0584
    129 H          13.2728   -4.5138    0.0000 H       1  UNL1        0.2100
    130 H           2.0000   -4.9703    0.0000 H       1  UNL1        0.2100
    131 H           3.7878   -2.2123    0.0000 H       1  UNL1        0.2095
@<TRIPOS>BOND
     1     1    22    1
     2    29     1    1
     3    20     2    1
     4     2    78    1
     5     3    29    1
     6     3    42    1
     7    41     4    1
     8    45     4    1
     9     5    45    1
    10     5    48    1
    11    46     6    1
    12    51     6    1
    13    47     7    1
    14     7   111    1
    15    49     8    1
    16    53     8    1
    17     9    51    1
    18     9    56    1
    19    10    50    1
    20    10   114    1
    21    11    53    1
    22    11    59    1
    23    52    12    1
    24    12   121    1
    25    54    13    1
    26    13   125    1
    27    55    14    1
    28    14   126    1
    29    57    15    1
    30    15   129    1
    31    58    16    1
    32    16   130    1
    33    17    61    1
    34    17   131    1
    35    18    19    1
    36    18    20    1
    37    18    25    1
    38    18    30    1
    39    19    21    1
    40    19    23    1
    41    19    62    1
    42    20    22    1
    43    20    26    1
    44    21    24    1
    45    21    31    1
    46    21    63    1
    47    22    23    1
    48    22    64    1
    49    23    65    1
    50    23    66    1
    51    24    27    1
    52    24    28    1
    53    24    67    1
    54    25    27    1
    55    25    68    1
    56    25    69    1
    57    26    29    1
    58    26    34    1
    59    26    70    1
    60    27    71    1
    61    27    72    1
    62    28    32    1
    63    28    33    1
    64    28    37    1
    65    29    35    1
    66    30    73    1
    67    30    74    1
    68    30    75    1
    69    31    36    1
    70    31    76    1
    71    31    77    1
    72    32    36    2
    73    32    38    1
    74    33    39    1
    75    33    79    1
    76    33    80    1
    77    34    81    1
    78    34    82    1
    79    34    83    1
    80    35    40    1
    81    35    84    1
    82    35    85    1
    83    36    86    1
    84    37    87    1
    85    37    88    1
    86    37    89    1
    87    38    41    1
    88    38    90    1
    89    38    91    1
    90    39    41    1
    91    39    92    1
    92    39    93    1
    93    40    43    1
    94    40    94    1
    95    40    95    1
    96    41    96    1
    97    42    43    1
    98    42    97    1
    99    42    98    1
   100    43    44    1
   101    43    99    1
   102    44   100    1
   103    44   101    1
   104    44   102    1
   105    45    46    1
   106    45   103    1
   107    46    47    1
   108    46   104    1
   109    47    49    1
   110    47   105    1
   111    48    49    1
   112    48    50    1
   113    48   106    1
   114    49   107    1
   115    50   108    1
   116    50   109    1
   117    51    52    1
   118    51   110    1
   119    52    54    1
   120    52   112    1
   121    53    55    1
   122    53   113    1
   123    54    57    1
   124    54   115    1
   125    55    58    1
   126    55   116    1
   127    56    57    1
   128    56    60    1
   129    56   117    1
   130    57   118    1
   131    58    59    1
   132    58   119    1
   133    59    61    1
   134    59   120    1
   135    60   122    1
   136    60   123    1
   137    60   124    1
   138    61   127    1
   139    61   128    1
