@<TRIPOS>MOLECULE
IMPHY013565
 31 33 0 0 0
SMALL
GASTEIGER

@<TRIPOS>ATOM
      1 O           6.4144    2.0346    0.0000 O.3     1  UNL1       -0.5056
      2 O           4.6660    2.0000    0.0000 O.2     1  UNL1       -0.2864
      3 O           4.6660   -2.0000    0.0000 O.2     1  UNL1       -0.2865
      4 O           8.1962   -1.0241    0.0000 O.3     1  UNL1       -0.5064
      5 O           2.9176    2.0346    0.0000 O.3     1  UNL1       -0.5060
      6 O           2.9176   -2.0346    0.0000 O.3     1  UNL1       -0.5060
      7 C           5.5321    0.5000    0.0000 C.ar    1  UNL1        0.0750
      8 C           5.5321   -0.5000    0.0000 C.ar    1  UNL1        0.0402
      9 C           3.8000    0.5000    0.0000 C.ar    1  UNL1        0.0780
     10 C           3.8000   -0.5000    0.0000 C.ar    1  UNL1        0.0779
     11 C           4.6660    1.0000    0.0000 C.2     1  UNL1        0.2016
     12 C           4.6660   -1.0000    0.0000 C.2     1  UNL1        0.1984
     13 C           6.4260    1.0347    0.0000 C.ar    1  UNL1        0.1347
     14 C           7.3321    0.5208    0.0000 C.ar    1  UNL1        0.0330
     15 C           6.4260   -1.0347    0.0000 C.ar    1  UNL1       -0.0082
     16 C           7.3321   -0.5208    0.0000 C.ar    1  UNL1        0.1239
     17 C           2.9061    1.0347    0.0000 C.ar    1  UNL1        0.1286
     18 C           2.9061   -1.0347    0.0000 C.ar    1  UNL1        0.1286
     19 C           2.0000    0.5208    0.0000 C.ar    1  UNL1       -0.0160
     20 C           2.0000   -0.5208    0.0000 C.ar    1  UNL1       -0.0160
     21 C           8.1962    1.0241    0.0000 C.3     1  UNL1       -0.0327
     22 H           6.4188   -1.6546    0.0000 H       1  UNL1        0.0661
     23 H           1.4643    0.8329    0.0000 H       1  UNL1        0.0655
     24 H           1.4643   -0.8329    0.0000 H       1  UNL1        0.0655
     25 H           8.5082    0.4884    0.0000 H       1  UNL1        0.0280
     26 H           8.7319    1.3362    0.0000 H       1  UNL1        0.0280
     27 H           7.8841    1.5599    0.0000 H       1  UNL1        0.0280
     28 H           6.9478    2.3508    0.0000 H       1  UNL1        0.2922
     29 H           8.1938   -1.6442    0.0000 H       1  UNL1        0.2921
     30 H           2.3843    2.3508    0.0000 H       1  UNL1        0.2922
     31 H           2.3843   -2.3508    0.0000 H       1  UNL1        0.2922
@<TRIPOS>BOND
     1     1    13    1
     2     1    28    1
     3     2    11    2
     4     3    12    2
     5     4    16    1
     6     4    29    1
     7     5    17    1
     8     5    30    1
     9     6    18    1
    10     6    31    1
    11     7     8   ar
    12     7    11    1
    13     7    13   ar
    14     8    12    1
    15     8    15   ar
    16     9    10   ar
    17     9    11    1
    18     9    17   ar
    19    10    12    1
    20    10    18   ar
    21    13    14   ar
    22    14    16   ar
    23    14    21    1
    24    15    16   ar
    25    15    22    1
    26    17    19   ar
    27    18    20   ar
    28    19    20   ar
    29    19    23    1
    30    20    24    1
    31    21    25    1
    32    21    26    1
    33    21    27    1
