@<TRIPOS>MOLECULE
IMPHY016763
 41 42 0 0 0
SMALL
GASTEIGER

@<TRIPOS>ATOM
      1 O           3.6263   -0.6424    0.0000 O.3     1  UNL1       -0.4602
      2 O           4.5441   -2.1113    0.0000 O.2     1  UNL1       -0.2508
      3 C           7.0594    1.7613    0.0000 C.3     1  UNL1       -0.0251
      4 C           5.9193    2.7184    0.0000 C.3     1  UNL1       -0.0313
      5 C           5.6605    1.7525    0.0000 C.3     1  UNL1       -0.0111
      6 C           5.1827    3.7011    0.0000 C.3     1  UNL1       -0.0423
      7 C           3.8860    2.4073    0.0000 C.3     1  UNL1       -0.0310
      8 C           4.4394    0.8869    0.0000 C.2     1  UNL1       -0.0329
      9 C           7.5594    0.8953    0.0000 C.3     1  UNL1       -0.0590
     10 C           7.9254    2.2613    0.0000 C.3     1  UNL1       -0.0590
     11 C           3.6104    1.4461    0.0000 C.2     1  UNL1       -0.0810
     12 C           4.4744   -0.1125    0.0000 C.3     1  UNL1        0.1139
     13 C           3.6612   -1.6418    0.0000 C.2     1  UNL1        0.3076
     14 C           2.8131   -2.1718    0.0000 C.3     1  UNL1        0.0473
     15 C           2.8481   -3.1712    0.0000 C.3     1  UNL1       -0.0367
     16 C           2.0000   -3.7011    0.0000 C.3     1  UNL1       -0.0622
     17 C           3.7310   -3.6406    0.0000 C.3     1  UNL1       -0.0622
     18 H           6.3696    3.1446    0.0000 H       1  UNL1        0.0309
     19 H           5.8505    1.1624    0.0000 H       1  UNL1        0.0352
     20 H           5.5005    4.2334    0.0000 H       1  UNL1        0.0274
     21 H           4.5695    3.7930    0.0000 H       1  UNL1        0.0274
     22 H           3.8810    3.0273    0.0000 H       1  UNL1        0.0310
     23 H           3.2717    2.4911    0.0000 H       1  UNL1        0.0310
     24 H           7.0225    0.5853    0.0000 H       1  UNL1        0.0235
     25 H           7.8694    0.3584    0.0000 H       1  UNL1        0.0235
     26 H           8.0963    1.2053    0.0000 H       1  UNL1        0.0235
     27 H           8.2354    1.7244    0.0000 H       1  UNL1        0.0235
     28 H           8.4624    2.5713    0.0000 H       1  UNL1        0.0235
     29 H           7.6154    2.7983    0.0000 H       1  UNL1        0.0235
     30 H           3.0278    1.2340    0.0000 H       1  UNL1        0.0573
     31 H           4.7066   -0.6874    0.0000 H       1  UNL1        0.0745
     32 H           5.0808    0.0164    0.0000 H       1  UNL1        0.0745
     33 H           2.5809   -1.5969    0.0000 H       1  UNL1        0.0380
     34 H           2.2067   -2.3007    0.0000 H       1  UNL1        0.0380
     35 H           3.3738   -2.8426    0.0000 H       1  UNL1        0.0301
     36 H           1.6714   -3.1753    0.0000 H       1  UNL1        0.0232
     37 H           1.4742   -4.0296    0.0000 H       1  UNL1        0.0232
     38 H           2.3286   -4.2269    0.0000 H       1  UNL1        0.0232
     39 H           3.4399   -4.1880    0.0000 H       1  UNL1        0.0232
     40 H           4.2784   -3.9317    0.0000 H       1  UNL1        0.0232
     41 H           4.0221   -3.0932    0.0000 H       1  UNL1        0.0232
@<TRIPOS>BOND
     1     1    12    1
     2     1    13    1
     3     2    13    2
     4     3     4    1
     5     3     5    1
     6     3     9    1
     7     3    10    1
     8     4     6    1
     9     4     7    1
    10     4    18    1
    11     5     6    1
    12     5     8    1
    13     5    19    1
    14     6    20    1
    15     6    21    1
    16     7    11    1
    17     7    22    1
    18     7    23    1
    19     8    11    2
    20     8    12    1
    21     9    24    1
    22     9    25    1
    23     9    26    1
    24    10    27    1
    25    10    28    1
    26    10    29    1
    27    11    30    1
    28    12    31    1
    29    12    32    1
    30    13    14    1
    31    14    15    1
    32    14    33    1
    33    14    34    1
    34    15    16    1
    35    15    17    1
    36    15    35    1
    37    16    36    1
    38    16    37    1
    39    16    38    1
    40    17    39    1
    41    17    40    1
    42    17    41    1
