@<TRIPOS>MOLECULE
IMPHY005901
 30 31 0 0 0
SMALL
GASTEIGER

@<TRIPOS>ATOM
      1 CL          3.4193    0.0000    0.0000 Cl      1  UNL1        0.0000
      2 O           1.1311    4.5563    0.0000 O.3     2  UNL2       -0.4949
      3 N           4.6358    5.4688    0.0000 N.pl3   2  UNL2       -0.3646
      4 N           7.1632    4.3446    0.0000 N.ar    2  UNL2       -0.2538
      5 C           5.4448    4.8810    0.0000 C.ar    2  UNL2        0.1772
      6 C           3.8268    4.8810    0.0000 C.ar    2  UNL2        0.1595
      7 C           4.1358    3.9300    0.0000 C.ar    2  UNL2        0.0540
      8 C           5.1358    3.9300    0.0000 C.ar    2  UNL2        0.0569
      9 C           6.4603    5.1133    0.0000 C.ar    2  UNL2        0.1039
     10 C           2.8114    5.1133    0.0000 C.ar    2  UNL2        0.0462
     11 C           3.4509    3.1452    0.0000 C.ar    2  UNL2       -0.0443
     12 C           5.8208    3.1452    0.0000 C.ar    2  UNL2       -0.0296
     13 C           2.1085    4.3446    0.0000 C.ar    2  UNL2        0.1262
     14 C           2.4304    3.3539    0.0000 C.ar    2  UNL2       -0.0190
     15 C           6.8413    3.3539    0.0000 C.ar    2  UNL2        0.0289
     16 C           6.7583    6.0678    0.0000 C.3     2  UNL2       -0.0162
     17 C           0.4591    3.8157    0.0000 C.3     2  UNL2        0.0788
     18 H           5.0003    5.9704    0.0000 H       2  UNL2        0.3787
     19 H           4.2714    5.9704    0.0000 H       2  UNL2        0.3787
     20 H           2.6266    5.7051    0.0000 H       2  UNL2        0.0718
     21 H           3.6493    2.5578    0.0000 H       2  UNL2        0.0627
     22 H           5.6224    2.5578    0.0000 H       2  UNL2        0.0641
     23 H           2.0173    2.8916    0.0000 H       2  UNL2        0.0654
     24 H           7.2544    2.8916    0.0000 H       2  UNL2        0.0830
     25 H           7.3501    5.8831    0.0000 H       2  UNL2        0.0295
     26 H           6.9430    6.6597    0.0000 H       2  UNL2        0.0295
     27 H           6.1664    6.2526    0.0000 H       2  UNL2        0.0295
     28 H           0.0000    4.2323    0.0000 H       2  UNL2        0.0660
     29 H           0.0425    3.3566    0.0000 H       2  UNL2        0.0660
     30 H           0.9183    3.3991    0.0000 H       2  UNL2        0.0660
@<TRIPOS>UNITY_ATOM_ATTR
1 1
charge -1
3 1
charge 1
@<TRIPOS>BOND
     1     2    13    1
     2     2    17    1
     3     3     5    1
     4     3     6    1
     5     3    18    1
     6     3    19    1
     7     4     9   ar
     8     4    15   ar
     9     5     8   ar
    10     5     9   ar
    11     6     7   ar
    12     6    10   ar
    13     7     8    1
    14     7    11   ar
    15     8    12   ar
    16     9    16    1
    17    10    13   ar
    18    10    20    1
    19    11    14   ar
    20    11    21    1
    21    12    15   ar
    22    12    22    1
    23    13    14   ar
    24    14    23    1
    25    15    24    1
    26    16    25    1
    27    16    26    1
    28    16    27    1
    29    17    28    1
    30    17    29    1
    31    17    30    1
