@<TRIPOS>MOLECULE
IMPHY000556
 26 27 0 0 0
SMALL
GASTEIGER

@<TRIPOS>ATOM
      1 O           5.2317   -2.0110    0.0000 O.3     1  UNL1       -0.3860
      2 O           6.4356    1.2969    0.0000 O.3     1  UNL1       -0.3876
      3 O           7.0353   -0.7944    0.0000 O.3     1  UNL1       -0.3865
      4 N           4.5234    1.8026    0.0000 N.3     1  UNL1       -0.2914
      5 N           3.7867   -1.1118    0.0000 N.3     1  UNL1       -0.3108
      6 C           4.0456   -0.1459    0.0000 C.3     1  UNL1        0.0972
      7 C           3.7867    0.8200    0.0000 C.3     1  UNL1        0.0379
      8 C           2.6466   -0.6548    0.0000 C.3     1  UNL1       -0.0174
      9 C           5.2666   -1.0116    0.0000 C.3     1  UNL1        0.1146
     10 C           2.3878    0.3112    0.0000 C.3     1  UNL1       -0.0320
     11 C           5.8200    0.5089    0.0000 C.3     1  UNL1        0.0989
     12 C           6.0956   -0.4524    0.0000 C.3     1  UNL1        0.1112
     13 H           3.5667    1.6410    0.0000 H       1  UNL1        0.0487
     14 H           5.8088   -1.3122    0.0000 H       1  UNL1        0.0652
     15 H           2.8415   -1.2433    0.0000 H       1  UNL1        0.0297
     16 H           2.0526   -0.8325    0.0000 H       1  UNL1        0.0297
     17 H           1.7938    0.1334    0.0000 H       1  UNL1        0.0282
     18 H           2.1929    0.8997    0.0000 H       1  UNL1        0.0282
     19 H           6.4286    0.3906    0.0000 H       1  UNL1        0.0636
     20 H           4.8334    2.3395    0.0000 H       1  UNL1        0.1241
     21 H           6.5491   -0.0296    0.0000 H       1  UNL1        0.0647
     22 H           3.1879   -1.2723    0.0000 H       1  UNL1        0.1200
     23 H           4.2251   -1.5503    0.0000 H       1  UNL1        0.1200
     24 H           5.7575   -2.3395    0.0000 H       1  UNL1        0.2100
     25 H           7.0496    1.2106    0.0000 H       1  UNL1        0.2100
     26 H           7.5103   -0.3959    0.0000 H       1  UNL1        0.2100
@<TRIPOS>BOND
     1     9     1    1
     2     1    24    1
     3    11     2    1
     4     2    25    1
     5    12     3    1
     6     3    26    1
     7     4     6    1
     8     4     7    1
     9     4    20    1
    10     6     5    1
    11     5    22    1
    12     5    23    1
    13     6     8    1
    14     6     9    1
    15     7    10    1
    16     7    11    1
    17     7    13    1
    18     8    10    1
    19     8    15    1
    20     8    16    1
    21     9    12    1
    22     9    14    1
    23    10    17    1
    24    10    18    1
    25    11    12    1
    26    11    19    1
    27    12    21    1
