@<TRIPOS>MOLECULE
IMPHY001280
 69 73 0 0 0
SMALL
GASTEIGER

@<TRIPOS>ATOM
      1 O           3.8611    0.6047    0.0000 O.3     1  UNL1       -0.3645
      2 O           3.7320    2.7718    0.0000 O.3     1  UNL1       -0.4583
      3 O           8.1003    2.2687    0.0000 O.2     1  UNL1       -0.2965
      4 O           8.0622   -0.7282    0.0000 O.3     1  UNL1       -0.4679
      5 O           6.3301   -0.7282    0.0000 O.2     1  UNL1       -0.2509
      6 O           4.6841   -4.3411    0.0000 O.2     1  UNL1       -0.4707
      7 O           2.8660    1.2718    0.0000 O.2     1  UNL1       -0.2512
      8 C           5.4641    0.7718    0.0000 C.3     1  UNL1        0.0255
      9 C           6.3301    1.2718    0.0000 C.3     1  UNL1       -0.0065
     10 C           6.3301    2.2718    0.0000 C.3     1  UNL1        0.0406
     11 C           4.5981    1.2718    0.0000 C.3     1  UNL1        0.1062
     12 C           5.4641    2.7718    0.0000 C.3     1  UNL1        0.0318
     13 C           4.5981    2.2718    0.0000 C.3     1  UNL1        0.1372
     14 C           5.2549   -0.2000    0.0000 C.2     1  UNL1       -0.0328
     15 C           4.2662   -0.3030    0.0000 C.3     1  UNL1        0.0819
     16 C           6.3301    0.2718    0.0000 C.3     1  UNL1       -0.0530
     17 C           7.1962    0.7718    0.0000 C.3     1  UNL1        0.0495
     18 C           4.0624   -1.2700    0.0000 C.3     1  UNL1       -0.0121
     19 C           5.6537   -1.1041    0.0000 C.2     1  UNL1       -0.0628
     20 C           7.2401    2.7787    0.0000 C.2     1  UNL1        0.1439
     21 C           4.9182   -1.7641    0.0000 C.3     1  UNL1        0.0109
     22 C           7.1962    1.7718    0.0000 C.3     1  UNL1       -0.0518
     23 C           5.4480    3.8133    0.0000 C.2     1  UNL1       -0.0685
     24 C           7.2482    3.8203    0.0000 C.3     1  UNL1        0.0248
     25 C           6.3461    4.3411    0.0000 C.2     1  UNL1       -0.0775
     26 C           6.6313   -1.3146    0.0000 C.3     1  UNL1       -0.0429
     27 C           5.0219   -2.7587    0.0000 C.ar    1  UNL1       -0.0025
     28 C           4.5763    4.3033    0.0000 C.3     1  UNL1       -0.0434
     29 C           7.1962   -0.2282    0.0000 C.2     1  UNL1        0.3071
     30 C           2.8660    2.2718    0.0000 C.2     1  UNL1        0.3043
     31 C           5.8874   -3.2594    0.0000 C.ar    1  UNL1       -0.0202
     32 C           4.2781   -3.4272    0.0000 C.ar    1  UNL1        0.0954
     33 C           2.0000    2.7718    0.0000 C.3     1  UNL1        0.0332
     34 C           5.6787   -4.2374    0.0000 C.ar    1  UNL1        0.0920
     35 C           8.0622   -1.7282    0.0000 C.3     1  UNL1        0.0817
     36 H           6.3301    0.6518    0.0000 H       1  UNL1        0.0325
     37 H           3.8211    1.6166    0.0000 H       1  UNL1        0.0642
     38 H           4.9248    3.0777    0.0000 H       1  UNL1        0.0392
     39 H           4.5981    2.8918    0.0000 H       1  UNL1        0.0767
     40 H           3.6497   -0.3686    0.0000 H       1  UNL1        0.0644
     41 H           6.0201   -0.2651    0.0000 H       1  UNL1        0.0239
     42 H           6.8671   -0.0382    0.0000 H       1  UNL1        0.0239
     43 H           6.6401    0.8088    0.0000 H       1  UNL1        0.0239
     44 H           7.8067    0.6642    0.0000 H       1  UNL1        0.0381
     45 H           7.4082    1.3544    0.0000 H       1  UNL1        0.0381
     46 H           3.4725   -1.0791    0.0000 H       1  UNL1        0.0302
     47 H           3.8105   -1.8365    0.0000 H       1  UNL1        0.0302
     48 H           5.4967   -1.9870    0.0000 H       1  UNL1        0.0396
     49 H           6.8862    1.2349    0.0000 H       1  UNL1        0.0239
     50 H           7.7331    1.4618    0.0000 H       1  UNL1        0.0239
     51 H           7.5062    2.3088    0.0000 H       1  UNL1        0.0239
     52 H           7.8582    3.7095    0.0000 H       1  UNL1        0.0384
     53 H           7.4617    4.4023    0.0000 H       1  UNL1        0.0384
     54 H           6.3437    4.9611    0.0000 H       1  UNL1        0.0576
     55 H           6.5008   -1.9207    0.0000 H       1  UNL1        0.0275
     56 H           7.2374   -1.4451    0.0000 H       1  UNL1        0.0275
     57 H           6.7618   -0.7085    0.0000 H       1  UNL1        0.0275
     58 H           4.8801    4.8438    0.0000 H       1  UNL1        0.0274
     59 H           4.0358    4.6071    0.0000 H       1  UNL1        0.0274
     60 H           4.2725    3.7628    0.0000 H       1  UNL1        0.0274
     61 H           6.4541   -3.0078    0.0000 H       1  UNL1        0.0652
     62 H           3.6718   -3.2978    0.0000 H       1  UNL1        0.1032
     63 H           2.3100    3.3088    0.0000 H       1  UNL1        0.0342
     64 H           1.4631    3.0818    0.0000 H       1  UNL1        0.0342
     65 H           1.6900    2.2349    0.0000 H       1  UNL1        0.0342
     66 H           6.0932   -4.6985    0.0000 H       1  UNL1        0.1029
     67 H           7.4422   -1.7282    0.0000 H       1  UNL1        0.0661
     68 H           8.0622   -2.3482    0.0000 H       1  UNL1        0.0661
     69 H           8.6822   -1.7282    0.0000 H       1  UNL1        0.0661
@<TRIPOS>BOND
     1     1    11    1
     2     1    15    1
     3    13     2    1
     4     2    30    1
     5     3    20    2
     6     4    29    1
     7     4    35    1
     8     5    29    2
     9     6    32   ar
    10     6    34   ar
    11     7    30    2
    12     8     9    1
    13     8    11    1
    14     8    14    1
    15     8    16    1
    16     9    10    1
    17     9    17    1
    18     9    36    1
    19    10    12    1
    20    10    20    1
    21    10    22    1
    22    11    13    1
    23    11    37    1
    24    12    13    1
    25    12    23    1
    26    12    38    1
    27    13    39    1
    28    14    15    1
    29    14    19    2
    30    15    18    1
    31    15    40    1
    32    16    41    1
    33    16    42    1
    34    16    43    1
    35    17    29    1
    36    17    44    1
    37    17    45    1
    38    18    21    1
    39    18    46    1
    40    18    47    1
    41    19    21    1
    42    19    26    1
    43    20    24    1
    44    21    27    1
    45    21    48    1
    46    22    49    1
    47    22    50    1
    48    22    51    1
    49    23    25    2
    50    23    28    1
    51    24    25    1
    52    24    52    1
    53    24    53    1
    54    25    54    1
    55    26    55    1
    56    26    56    1
    57    26    57    1
    58    27    31   ar
    59    27    32   ar
    60    28    58    1
    61    28    59    1
    62    28    60    1
    63    30    33    1
    64    31    34   ar
    65    31    61    1
    66    32    62    1
    67    33    63    1
    68    33    64    1
    69    33    65    1
    70    34    66    1
    71    35    67    1
    72    35    68    1
    73    35    69    1
