@<TRIPOS>MOLECULE
IMPHY005268
 25 25 0 0 0
SMALL
GASTEIGER

@<TRIPOS>ATOM
      1 O           3.7320   -2.0950    0.0000 O.3     1  UNL1       -0.5068
      2 C           3.7320    1.9050    0.0000 C.3     1  UNL1       -0.0213
      3 C           3.7320    0.9050    0.0000 C.ar    1  UNL1       -0.0417
      4 C           2.8660    0.4050    0.0000 C.ar    1  UNL1       -0.0436
      5 C           4.5981    2.4050    0.0000 C.3     1  UNL1       -0.0586
      6 C           2.8660    2.4050    0.0000 C.3     1  UNL1       -0.0586
      7 C           4.5981    0.4050    0.0000 C.ar    1  UNL1       -0.0546
      8 C           2.8660   -0.5950    0.0000 C.ar    1  UNL1       -0.0170
      9 C           2.0000    0.9050    0.0000 C.3     1  UNL1       -0.0393
     10 C           4.5981   -0.5950    0.0000 C.ar    1  UNL1       -0.0199
     11 C           3.7320   -1.0950    0.0000 C.ar    1  UNL1        0.1171
     12 H           3.7320    2.5250    0.0000 H       1  UNL1        0.0344
     13 H           4.9081    1.8681    0.0000 H       1  UNL1        0.0235
     14 H           5.1350    2.7150    0.0000 H       1  UNL1        0.0235
     15 H           4.2881    2.9419    0.0000 H       1  UNL1        0.0235
     16 H           3.1760    2.9419    0.0000 H       1  UNL1        0.0235
     17 H           2.3291    2.7150    0.0000 H       1  UNL1        0.0235
     18 H           2.5560    1.8681    0.0000 H       1  UNL1        0.0235
     19 H           5.1350    0.7150    0.0000 H       1  UNL1        0.0622
     20 H           2.3291   -0.9050    0.0000 H       1  UNL1        0.0657
     21 H           2.3100    1.4419    0.0000 H       1  UNL1        0.0278
     22 H           1.4631    1.2150    0.0000 H       1  UNL1        0.0278
     23 H           1.6900    0.3681    0.0000 H       1  UNL1        0.0278
     24 H           5.1350   -0.9050    0.0000 H       1  UNL1        0.0654
     25 H           4.2690   -2.4050    0.0000 H       1  UNL1        0.2921
@<TRIPOS>BOND
     1     1    11    1
     2     1    25    1
     3     2     3    1
     4     2     5    1
     5     2     6    1
     6     2    12    1
     7     3     4   ar
     8     3     7   ar
     9     4     8   ar
    10     4     9    1
    11     5    13    1
    12     5    14    1
    13     5    15    1
    14     6    16    1
    15     6    17    1
    16     6    18    1
    17     7    10   ar
    18     7    19    1
    19     8    11   ar
    20     8    20    1
    21     9    21    1
    22     9    22    1
    23     9    23    1
    24    10    11   ar
    25    10    24    1
