@<TRIPOS>MOLECULE
IMPHY000722
 55 57 0 0 0
SMALL
GASTEIGER

@<TRIPOS>ATOM
      1 O           6.8671    1.0390    0.0000 O.3     1  UNL1       -0.4539
      2 O           8.5991    0.0390    0.0000 O.3     1  UNL1       -0.4515
      3 O           8.0991    3.9050    0.0000 O.3     1  UNL1       -0.3772
      4 O          10.3312    1.0390    0.0000 O.3     1  UNL1       -0.3879
      5 O          10.0991    3.9050    0.0000 O.3     1  UNL1       -0.4786
      6 O           8.5991    4.7710    0.0000 O.2     1  UNL1       -0.2478
      7 O           6.0010    2.5390    0.0000 O.2     1  UNL1       -0.2449
      8 O           6.8671    0.0390    0.0000 O.2     1  UNL1       -0.2449
      9 O           4.2690   -1.4610    0.0000 O.3     1  UNL1       -0.5032
     10 O           2.5369    1.5390    0.0000 O.3     1  UNL1       -0.5032
     11 O           9.4651   -3.4610    0.0000 O.3     1  UNL1       -0.5032
     12 O           6.0010   -3.4610    0.0000 O.3     1  UNL1       -0.5032
     13 O           2.5369   -0.4610    0.0000 O.3     1  UNL1       -0.5009
     14 O           7.7331   -4.4610    0.0000 O.3     1  UNL1       -0.5009
     15 C           8.5991    3.0390    0.0000 C.3     1  UNL1        0.1678
     16 C           7.7331    1.5390    0.0000 C.3     1  UNL1        0.1457
     17 C           8.5991    1.0390    0.0000 C.3     1  UNL1        0.1658
     18 C           7.7331    2.5390    0.0000 C.3     1  UNL1        0.0274
     19 C           9.4651    1.5390    0.0000 C.3     1  UNL1        0.0987
     20 C           9.4651    2.5390    0.0000 C.3     1  UNL1        0.0163
     21 C           9.0991    3.9050    0.0000 C.2     1  UNL1        0.3370
     22 C           6.0010    1.5390    0.0000 C.2     1  UNL1        0.3398
     23 C           7.7331   -0.4610    0.0000 C.2     1  UNL1        0.3399
     24 C           5.1350    1.0390    0.0000 C.ar    1  UNL1        0.0661
     25 C           7.7331   -1.4610    0.0000 C.ar    1  UNL1        0.0661
     26 C           4.2690    1.5390    0.0000 C.ar    1  UNL1       -0.0023
     27 C           5.1350    0.0390    0.0000 C.ar    1  UNL1       -0.0023
     28 C           6.8671   -1.9610    0.0000 C.ar    1  UNL1       -0.0023
     29 C           8.5991   -1.9610    0.0000 C.ar    1  UNL1       -0.0023
     30 C           4.2690   -0.4610    0.0000 C.ar    1  UNL1        0.1628
     31 C           3.4030    1.0390    0.0000 C.ar    1  UNL1        0.1628
     32 C           8.5991   -2.9610    0.0000 C.ar    1  UNL1        0.1628
     33 C           6.8671   -2.9610    0.0000 C.ar    1  UNL1        0.1628
     34 C           3.4030    0.0390    0.0000 C.ar    1  UNL1        0.2006
     35 C           7.7331   -3.4610    0.0000 C.ar    1  UNL1        0.2006
     36 H           7.7331    0.9190    0.0000 H       1  UNL1        0.0773
     37 H           9.1360    0.7290    0.0000 H       1  UNL1        0.0798
     38 H           7.5210    3.1216    0.0000 H       1  UNL1        0.0335
     39 H           7.1225    2.4313    0.0000 H       1  UNL1        0.0335
     40 H          10.0021    1.8490    0.0000 H       1  UNL1        0.0632
     41 H          10.0757    2.4313    0.0000 H       1  UNL1        0.0325
     42 H           9.6772    3.1216    0.0000 H       1  UNL1        0.0325
     43 H           7.4791    3.9050    0.0000 H       1  UNL1        0.2109
     44 H          10.8681    1.3490    0.0000 H       1  UNL1        0.2099
     45 H          10.4091    4.4419    0.0000 H       1  UNL1        0.2951
     46 H           4.2690    2.1590    0.0000 H       1  UNL1        0.0663
     47 H           5.6720   -0.2710    0.0000 H       1  UNL1        0.0663
     48 H           6.3301   -1.6510    0.0000 H       1  UNL1        0.0663
     49 H           9.1360   -1.6510    0.0000 H       1  UNL1        0.0663
     50 H           3.7320   -1.7710    0.0000 H       1  UNL1        0.2923
     51 H           2.5369    2.1590    0.0000 H       1  UNL1        0.2923
     52 H          10.0021   -3.1510    0.0000 H       1  UNL1        0.2923
     53 H           6.0010   -4.0810    0.0000 H       1  UNL1        0.2923
     54 H           2.0000   -0.1510    0.0000 H       1  UNL1        0.2924
     55 H           8.2700   -4.7710    0.0000 H       1  UNL1        0.2924
@<TRIPOS>BOND
     1    16     1    1
     2     1    22    1
     3    17     2    1
     4     2    23    1
     5    15     3    1
     6     3    43    1
     7    19     4    1
     8     4    44    1
     9     5    21    1
    10     5    45    1
    11     6    21    2
    12     7    22    2
    13     8    23    2
    14     9    30    1
    15     9    50    1
    16    10    31    1
    17    10    51    1
    18    11    32    1
    19    11    52    1
    20    12    33    1
    21    12    53    1
    22    13    34    1
    23    13    54    1
    24    14    35    1
    25    14    55    1
    26    15    18    1
    27    15    20    1
    28    15    21    1
    29    16    17    1
    30    16    18    1
    31    16    36    1
    32    17    19    1
    33    17    37    1
    34    18    38    1
    35    18    39    1
    36    19    20    1
    37    19    40    1
    38    20    41    1
    39    20    42    1
    40    22    24    1
    41    23    25    1
    42    24    26   ar
    43    24    27   ar
    44    25    28   ar
    45    25    29   ar
    46    26    31   ar
    47    26    46    1
    48    27    30   ar
    49    27    47    1
    50    28    33   ar
    51    28    48    1
    52    29    32   ar
    53    29    49    1
    54    30    34   ar
    55    31    34   ar
    56    32    35   ar
    57    33    35   ar
