@<TRIPOS>MOLECULE
IMPHY013648
 26 25 0 0 0
SMALL
GASTEIGER

@<TRIPOS>ATOM
      1 O           5.1350   -1.2500    0.0000 O.3     1  UNL1       -0.3741
      2 O           6.0010    1.2500    0.0000 O.3     1  UNL1       -0.3699
      3 O           4.2690    1.2500    0.0000 O.3     1  UNL1       -0.3868
      4 O           2.5369    0.2500    0.0000 O.3     1  UNL1       -0.3924
      5 O           7.7331    0.2500    0.0000 O.2     1  UNL1       -0.2982
      6 C           5.1350   -0.2500    0.0000 C.3     1  UNL1        0.1188
      7 C           4.2690    0.2500    0.0000 C.3     1  UNL1        0.1071
      8 C           6.0010    0.2500    0.0000 C.3     1  UNL1        0.1414
      9 C           3.4030   -0.2500    0.0000 C.3     1  UNL1        0.0727
     10 C           6.8671   -0.2500    0.0000 C.2     1  UNL1        0.1515
     11 C           4.2690   -1.7500    0.0000 C.3     1  UNL1        0.0370
     12 C           6.8671    1.7500    0.0000 C.3     1  UNL1        0.0375
     13 H           5.6720   -0.5600    0.0000 H       1  UNL1        0.0653
     14 H           4.8059    0.5600    0.0000 H       1  UNL1        0.0643
     15 H           6.5380    0.5600    0.0000 H       1  UNL1        0.0700
     16 H           3.0044   -0.7249    0.0000 H       1  UNL1        0.0584
     17 H           3.8015   -0.7249    0.0000 H       1  UNL1        0.0584
     18 H           6.8671   -0.8700    0.0000 H       1  UNL1        0.1055
     19 H           3.7320    1.5600    0.0000 H       1  UNL1        0.2100
     20 H           3.9590   -1.2131    0.0000 H       1  UNL1        0.0524
     21 H           3.7320   -2.0600    0.0000 H       1  UNL1        0.0524
     22 H           4.5790   -2.2869    0.0000 H       1  UNL1        0.0524
     23 H           7.1771    1.2131    0.0000 H       1  UNL1        0.0524
     24 H           7.4040    2.0600    0.0000 H       1  UNL1        0.0524
     25 H           6.5571    2.2869    0.0000 H       1  UNL1        0.0524
     26 H           2.0000   -0.0600    0.0000 H       1  UNL1        0.2095
@<TRIPOS>BOND
     1     6     1    1
     2     1    11    1
     3     8     2    1
     4     2    12    1
     5     7     3    1
     6     3    19    1
     7     4     9    1
     8     4    26    1
     9     5    10    2
    10     6     7    1
    11     6     8    1
    12     6    13    1
    13     7     9    1
    14     7    14    1
    15     8    10    1
    16     8    15    1
    17     9    16    1
    18     9    17    1
    19    10    18    1
    20    11    20    1
    21    11    21    1
    22    11    22    1
    23    12    23    1
    24    12    24    1
    25    12    25    1
