@<TRIPOS>MOLECULE
IMPHY015461
 52 51 0 0 0
SMALL
GASTEIGER

@<TRIPOS>ATOM
      1 C          13.2583    0.2500    0.0000 C.3     1  UNL1       -0.0530
      2 C           5.4641   -0.2500    0.0000 C.3     1  UNL1       -0.0530
      3 C          14.1244    0.7500    0.0000 C.3     1  UNL1       -0.0531
      4 C           4.5981   -0.7500    0.0000 C.3     1  UNL1       -0.0531
      5 C          12.3923    0.7500    0.0000 C.3     1  UNL1       -0.0522
      6 C           6.3301   -0.7500    0.0000 C.3     1  UNL1       -0.0522
      7 C          14.9904    0.2500    0.0000 C.3     1  UNL1       -0.0533
      8 C           3.7320   -0.2500    0.0000 C.3     1  UNL1       -0.0533
      9 C          11.5263    0.2500    0.0000 C.3     1  UNL1       -0.0422
     10 C           7.1962   -0.2500    0.0000 C.3     1  UNL1       -0.0422
     11 C          15.8564    0.7500    0.0000 C.3     1  UNL1       -0.0559
     12 C           2.8660   -0.7500    0.0000 C.3     1  UNL1       -0.0559
     13 C          10.6603    0.7500    0.0000 C.3     1  UNL1        0.0091
     14 C           8.0622   -0.7500    0.0000 C.3     1  UNL1        0.0091
     15 C          16.7224    0.2500    0.0000 C.3     1  UNL1       -0.0653
     16 C           2.0000   -0.2500    0.0000 C.3     1  UNL1       -0.0653
     17 C           9.7942    0.2500    0.0000 C.1     1  UNL1       -0.1022
     18 C           8.9282   -0.2500    0.0000 C.1     1  UNL1       -0.1022
     19 H          12.8598   -0.2249    0.0000 H       1  UNL1        0.0265
     20 H          13.6569   -0.2249    0.0000 H       1  UNL1        0.0265
     21 H           5.8626    0.2249    0.0000 H       1  UNL1        0.0265
     22 H           5.0656    0.2249    0.0000 H       1  UNL1        0.0265
     23 H          14.5229    1.2250    0.0000 H       1  UNL1        0.0265
     24 H          13.7258    1.2250    0.0000 H       1  UNL1        0.0265
     25 H           4.1996   -1.2250    0.0000 H       1  UNL1        0.0265
     26 H           4.9966   -1.2250    0.0000 H       1  UNL1        0.0265
     27 H          12.7908    1.2250    0.0000 H       1  UNL1        0.0266
     28 H          11.9938    1.2250    0.0000 H       1  UNL1        0.0266
     29 H           5.9316   -1.2250    0.0000 H       1  UNL1        0.0266
     30 H           6.7287   -1.2250    0.0000 H       1  UNL1        0.0266
     31 H          14.5919   -0.2249    0.0000 H       1  UNL1        0.0265
     32 H          15.3889   -0.2249    0.0000 H       1  UNL1        0.0265
     33 H           4.1306    0.2249    0.0000 H       1  UNL1        0.0265
     34 H           3.3335    0.2249    0.0000 H       1  UNL1        0.0265
     35 H          11.1278   -0.2249    0.0000 H       1  UNL1        0.0274
     36 H          11.9248   -0.2249    0.0000 H       1  UNL1        0.0274
     37 H           7.5947    0.2249    0.0000 H       1  UNL1        0.0274
     38 H           6.7976    0.2249    0.0000 H       1  UNL1        0.0274
     39 H          16.2549    1.2250    0.0000 H       1  UNL1        0.0263
     40 H          15.4579    1.2250    0.0000 H       1  UNL1        0.0263
     41 H           2.4675   -1.2250    0.0000 H       1  UNL1        0.0263
     42 H           3.2646   -1.2250    0.0000 H       1  UNL1        0.0263
     43 H          11.0588    1.2250    0.0000 H       1  UNL1        0.0397
     44 H          10.2617    1.2250    0.0000 H       1  UNL1        0.0397
     45 H           7.6636   -1.2250    0.0000 H       1  UNL1        0.0397
     46 H           8.4607   -1.2250    0.0000 H       1  UNL1        0.0397
     47 H          16.4124   -0.2869    0.0000 H       1  UNL1        0.0230
     48 H          17.2594   -0.0600    0.0000 H       1  UNL1        0.0230
     49 H          17.0324    0.7869    0.0000 H       1  UNL1        0.0230
     50 H           2.3100    0.2869    0.0000 H       1  UNL1        0.0230
     51 H           1.4631    0.0600    0.0000 H       1  UNL1        0.0230
     52 H           1.6900   -0.7869    0.0000 H       1  UNL1        0.0230
@<TRIPOS>BOND
     1     1     3    1
     2     1     5    1
     3     1    19    1
     4     1    20    1
     5     2     4    1
     6     2     6    1
     7     2    21    1
     8     2    22    1
     9     3     7    1
    10     3    23    1
    11     3    24    1
    12     4     8    1
    13     4    25    1
    14     4    26    1
    15     5     9    1
    16     5    27    1
    17     5    28    1
    18     6    10    1
    19     6    29    1
    20     6    30    1
    21     7    11    1
    22     7    31    1
    23     7    32    1
    24     8    12    1
    25     8    33    1
    26     8    34    1
    27     9    13    1
    28     9    35    1
    29     9    36    1
    30    10    14    1
    31    10    37    1
    32    10    38    1
    33    11    15    1
    34    11    39    1
    35    11    40    1
    36    12    16    1
    37    12    41    1
    38    12    42    1
    39    13    17    1
    40    13    43    1
    41    13    44    1
    42    14    18    1
    43    14    45    1
    44    14    46    1
    45    15    47    1
    46    15    48    1
    47    15    49    1
    48    16    50    1
    49    16    51    1
    50    16    52    1
    51    17    18    3
