@<TRIPOS>MOLECULE
IMPHY012698
 22 23 0 0 0
SMALL
GASTEIGER

@<TRIPOS>ATOM
      1 N           3.5388   -0.9755    0.0000 N.3     1  UNL1       -0.2954
      2 C           3.5388    0.0245    0.0000 C.3     1  UNL1        0.0315
      3 C           4.4851    0.3292    0.0000 C.3     1  UNL1       -0.0324
      4 C           4.4851   -1.2803    0.0000 C.3     1  UNL1       -0.0005
      5 C           5.0687   -0.4755    0.0000 C.3     1  UNL1       -0.0385
      6 C           2.5878   -1.2846    0.0000 C.3     1  UNL1        0.0032
      7 C           2.5878    0.3335    0.0000 C.2     1  UNL1       -0.0584
      8 C           2.0000   -0.4755    0.0000 C.3     1  UNL1       -0.0177
      9 C           2.2788    1.2846    0.0000 C.2     1  UNL1       -0.0979
     10 H           3.5396    0.6445    0.0000 H       1  UNL1        0.0509
     11 H           5.0224    0.6384    0.0000 H       1  UNL1        0.0284
     12 H           4.2340    0.8961    0.0000 H       1  UNL1        0.0284
     13 H           4.2340   -1.8472    0.0000 H       1  UNL1        0.0427
     14 H           5.0224   -1.5895    0.0000 H       1  UNL1        0.0427
     15 H           5.5295   -0.8903    0.0000 H       1  UNL1        0.0278
     16 H           5.5295   -0.0608    0.0000 H       1  UNL1        0.0278
     17 H           2.0508   -1.5946    0.0000 H       1  UNL1        0.0430
     18 H           2.8400   -1.8509    0.0000 H       1  UNL1        0.0430
     19 H           1.5392   -0.0607    0.0000 H       1  UNL1        0.0323
     20 H           1.5392   -0.8904    0.0000 H       1  UNL1        0.0323
     21 H           2.6936    1.7453    0.0000 H       1  UNL1        0.0535
     22 H           1.6723    1.4135    0.0000 H       1  UNL1        0.0535
@<TRIPOS>BOND
     1     1     2    1
     2     1     4    1
     3     1     6    1
     4     2     3    1
     5     2     7    1
     6     2    10    1
     7     3     5    1
     8     3    11    1
     9     3    12    1
    10     4     5    1
    11     4    13    1
    12     4    14    1
    13     5    15    1
    14     5    16    1
    15     6     8    1
    16     6    17    1
    17     6    18    1
    18     7     8    1
    19     7     9    2
    20     8    19    1
    21     8    20    1
    22     9    21    1
    23     9    22    1
