@<TRIPOS>MOLECULE
IMPHY015492
 107 114 0 0 0
SMALL
GASTEIGER

@<TRIPOS>ATOM
      1 O           6.0380    1.9158    0.0000 O.3     1  UNL1       -0.3578
      2 O          10.1724    2.8452    0.0000 O.3     1  UNL1       -0.3329
      3 O           4.4368    0.7351    0.0000 O.3     1  UNL1       -0.3713
      4 O           8.0438   -1.4258    0.0000 O.3     1  UNL1       -0.3391
      5 O           6.2859    2.0891    0.0000 O.3     1  UNL1       -0.4548
      6 O           7.1737   -2.4424    0.0000 O.3     1  UNL1       -0.4573
      7 O           8.0406    4.1458    0.0000 O.3     1  UNL1       -0.3778
      8 O           9.1181   -0.7264    0.0000 O.3     1  UNL1       -0.3560
      9 O          10.4650    4.7198    0.0000 O.2     1  UNL1       -0.4680
     10 O           3.6339   -2.4560    0.0000 O.3     1  UNL1       -0.4602
     11 O           2.9999   -1.7664    0.0000 O.3     1  UNL1       -0.4674
     12 O           9.5267    0.3955    0.0000 O.3     1  UNL1       -0.4642
     13 O           3.0200   -0.0344    0.0000 O.2     1  UNL1       -0.2500
     14 O           7.9456    1.1028    0.0000 O.2     1  UNL1       -0.2447
     15 O           4.5538    2.0891    0.0000 O.2     1  UNL1       -0.2453
     16 O           6.3251   -3.9523    0.0000 O.2     1  UNL1       -0.2453
     17 O           4.4941   -3.9593    0.0000 O.2     1  UNL1       -0.2512
     18 C           6.9782    1.5739    0.0000 C.3     1  UNL1        0.1344
     19 C           7.1519    0.5891    0.0000 C.3     1  UNL1        0.0505
     20 C           6.8046    2.5587    0.0000 C.3     1  UNL1        0.1056
     21 C           7.1519   -0.4109    0.0000 C.3     1  UNL1        0.0473
     22 C           6.2859   -0.9109    0.0000 C.3     1  UNL1        0.0468
     23 C           8.2875    2.6888    0.0000 C.3     1  UNL1        0.0316
     24 C           8.4612    1.7040    0.0000 C.3     1  UNL1        0.0955
     25 C           5.4198   -0.4109    0.0000 C.3     1  UNL1        0.0217
     26 C           6.2859    1.0891    0.0000 C.3     1  UNL1        0.1382
     27 C           9.5440    1.1247    0.0000 C.3     1  UNL1       -0.0149
     28 C           5.4198    0.5891    0.0000 C.3     1  UNL1        0.1009
     29 C           4.5098   -0.9178    0.0000 C.3     1  UNL1        0.1335
     30 C           9.0283    3.9894    0.0000 C.3     1  UNL1        0.1545
     31 C           8.1237   -0.6201    0.0000 C.3     1  UNL1        0.2720
     32 C           6.3019   -1.9524    0.0000 C.3     1  UNL1        0.1153
     33 C           7.9179   -0.0537    0.0000 C.3     1  UNL1       -0.0528
     34 C           6.9530   -1.6479    0.0000 C.3     1  UNL1        0.0613
     35 C           6.6310    3.5435    0.0000 C.3     1  UNL1       -0.0326
     36 C           4.5018   -1.9594    0.0000 C.3     1  UNL1        0.1246
     37 C          10.0160    3.8329    0.0000 C.3     1  UNL1        0.2342
     38 C           5.4039   -2.4802    0.0000 C.3     1  UNL1        0.0234
     39 C           3.9230   -0.1157    0.0000 C.3     1  UNL1        0.0678
     40 C           8.8753    4.9716    0.0000 C.2     1  UNL1       -0.0121
     41 C           3.5099   -0.9062    0.0000 C.2     1  UNL1        0.3193
     42 C           8.5320    0.2927    0.0000 C.2     1  UNL1        0.3675
     43 C           9.7614    5.4221    0.0000 C.2     1  UNL1        0.0870
     44 C           5.4198    2.5891    0.0000 C.2     1  UNL1        0.3349
     45 C           7.1852   -3.4423    0.0000 C.2     1  UNL1        0.3348
     46 C           3.6300   -3.4560    0.0000 C.2     1  UNL1        0.3042
     47 C           5.4198    3.5891    0.0000 C.2     1  UNL1        0.0293
     48 C           2.0000   -1.7548    0.0000 C.3     1  UNL1        0.0817
     49 C          10.1131   -0.4145    0.0000 C.3     1  UNL1        0.0818
     50 C           8.0570   -3.9322    0.0000 C.2     1  UNL1        0.0293
     51 C           2.7621   -3.9527    0.0000 C.3     1  UNL1        0.0332
     52 C           6.2859    4.0891    0.0000 C.3     1  UNL1       -0.0333
     53 C           4.5538    4.0891    0.0000 C.2     1  UNL1       -0.0774
     54 C           8.9172   -3.4223    0.0000 C.3     1  UNL1       -0.0333
     55 C           8.0686   -4.9322    0.0000 C.2     1  UNL1       -0.0774
     56 C           4.5538    5.0891    0.0000 C.3     1  UNL1       -0.0461
     57 C           8.9403   -5.4221    0.0000 C.3     1  UNL1       -0.0461
     58 H           7.8132    0.1232    0.0000 H       1  UNL1        0.0373
     59 H           8.1399    3.5259    0.0000 H       1  UNL1        0.0363
     60 H           8.6088    0.8669    0.0000 H       1  UNL1        0.0627
     61 H           5.4198   -1.2609    0.0000 H       1  UNL1        0.0347
     62 H           5.7489    1.3991    0.0000 H       1  UNL1        0.0767
     63 H           9.4810    0.5079    0.0000 H       1  UNL1        0.0296
     64 H          10.1386    1.3005    0.0000 H       1  UNL1        0.0296
     65 H           5.2609    1.4241    0.0000 H       1  UNL1        0.0636
     66 H           6.3079   -2.5724    0.0000 H       1  UNL1        0.0742
     67 H           7.5194   -0.5286    0.0000 H       1  UNL1        0.0237
     68 H           8.3929   -0.4522    0.0000 H       1  UNL1        0.0237
     69 H           8.3165    0.4213    0.0000 H       1  UNL1        0.0237
     70 H           6.4268   -1.9759    0.0000 H       1  UNL1        0.0568
     71 H           7.1824   -2.2239    0.0000 H       1  UNL1        0.0568
     72 H           7.2415    3.6512    0.0000 H       1  UNL1        0.0258
     73 H           6.5233    4.1541    0.0000 H       1  UNL1        0.0258
     74 H           6.0204    3.4358    0.0000 H       1  UNL1        0.0258
     75 H           4.5006   -2.5793    0.0000 H       1  UNL1        0.0747
     76 H          10.8555    3.7000    0.0000 H       1  UNL1        0.1090
     77 H           5.0066   -2.9561    0.0000 H       1  UNL1        0.0337
     78 H           5.8049   -2.9531    0.0000 H       1  UNL1        0.0337
     79 H           3.4391    0.2719    0.0000 H       1  UNL1        0.0572
     80 H           3.4752   -0.5444    0.0000 H       1  UNL1        0.0572
     81 H           8.3234    5.2540    0.0000 H       1  UNL1        0.0633
     82 H           7.8184    4.7246    0.0000 H       1  UNL1        0.2109
     83 H           9.3692   -1.2932    0.0000 H       1  UNL1        0.2133
     84 H           9.8584    6.0345    0.0000 H       1  UNL1        0.1022
     85 H           2.0072   -1.1348    0.0000 H       1  UNL1        0.0661
     86 H           1.3800   -1.7476    0.0000 H       1  UNL1        0.0661
     87 H           1.9928   -2.3748    0.0000 H       1  UNL1        0.0661
     88 H           9.6109   -0.7781    0.0000 H       1  UNL1        0.0661
     89 H          10.4767   -0.9167    0.0000 H       1  UNL1        0.0661
     90 H          10.6153   -0.0509    0.0000 H       1  UNL1        0.0661
     91 H           2.4541   -3.4145    0.0000 H       1  UNL1        0.0342
     92 H           2.2239   -4.2606    0.0000 H       1  UNL1        0.0342
     93 H           3.0700   -4.4908    0.0000 H       1  UNL1        0.0342
     94 H           6.5959    3.5522    0.0000 H       1  UNL1        0.0280
     95 H           6.8228    4.3991    0.0000 H       1  UNL1        0.0280
     96 H           5.9759    4.6260    0.0000 H       1  UNL1        0.0280
     97 H           4.0169    3.7791    0.0000 H       1  UNL1        0.0574
     98 H           9.2334   -3.9556    0.0000 H       1  UNL1        0.0280
     99 H           9.4505   -3.1061    0.0000 H       1  UNL1        0.0280
    100 H           8.6010   -2.8890    0.0000 H       1  UNL1        0.0280
    101 H           7.5352   -5.2484    0.0000 H       1  UNL1        0.0574
    102 H           5.1738    5.0891    0.0000 H       1  UNL1        0.0272
    103 H           4.5538    5.7091    0.0000 H       1  UNL1        0.0272
    104 H           3.9338    5.0891    0.0000 H       1  UNL1        0.0272
    105 H           8.6365   -5.9626    0.0000 H       1  UNL1        0.0272
    106 H           9.4808   -5.7259    0.0000 H       1  UNL1        0.0272
    107 H           9.2441   -4.8816    0.0000 H       1  UNL1        0.0272
@<TRIPOS>BOND
     1    18     1    1
     2     1    20    1
     3     2    24    1
     4     2    37    1
     5     3    28    1
     6     3    39    1
     7     4    31    1
     8     4    34    1
     9    26     5    1
    10     5    44    1
    11    32     6    1
    12     6    45    1
    13    30     7    1
    14     7    82    1
    15    31     8    1
    16     8    83    1
    17     9    37    1
    18     9    43    1
    19    36    10    1
    20    10    46    1
    21    11    41    1
    22    11    48    1
    23    12    42    1
    24    12    49    1
    25    13    41    2
    26    14    42    2
    27    15    44    2
    28    16    45    2
    29    17    46    2
    30    18    19    1
    31    18    20    1
    32    18    24    1
    33    19    21    1
    34    19    26    1
    35    19    33    1
    36    20    23    1
    37    20    35    1
    38    21    22    1
    39    21    31    1
    40    21    58    1
    41    22    25    1
    42    22    32    1
    43    22    34    1
    44    23    27    1
    45    23    30    1
    46    23    59    1
    47    24    27    1
    48    24    60    1
    49    25    28    1
    50    25    29    1
    51    25    61    1
    52    26    28    1
    53    26    62    1
    54    27    63    1
    55    27    64    1
    56    28    65    1
    57    29    36    1
    58    29    39    1
    59    29    41    1
    60    30    37    1
    61    30    40    1
    62    31    42    1
    63    32    38    1
    64    32    66    1
    65    33    67    1
    66    33    68    1
    67    33    69    1
    68    34    70    1
    69    34    71    1
    70    35    72    1
    71    35    73    1
    72    35    74    1
    73    36    38    1
    74    36    75    1
    75    37    76    1
    76    38    77    1
    77    38    78    1
    78    39    79    1
    79    39    80    1
    80    40    43    2
    81    40    81    1
    82    43    84    1
    83    44    47    1
    84    45    50    1
    85    46    51    1
    86    47    52    1
    87    47    53    2
    88    48    85    1
    89    48    86    1
    90    48    87    1
    91    49    88    1
    92    49    89    1
    93    49    90    1
    94    50    54    1
    95    50    55    2
    96    51    91    1
    97    51    92    1
    98    51    93    1
    99    52    94    1
   100    52    95    1
   101    52    96    1
   102    53    56    1
   103    53    97    1
   104    54    98    1
   105    54    99    1
   106    54   100    1
   107    55    57    1
   108    55   101    1
   109    56   102    1
   110    56   103    1
   111    56   104    1
   112    57   105    1
   113    57   106    1
   114    57   107    1
