@<TRIPOS>MOLECULE
IMPHY011141
 49 51 0 0 0
SMALL
GASTEIGER

@<TRIPOS>ATOM
      1 O           7.1949    2.1490    0.0000 O.3     1  UNL1       -0.3313
      2 O           6.6576   -1.6800    0.0000 O.3     1  UNL1       -0.4532
      3 O           4.2704    0.3478    0.0000 O.3     1  UNL1       -0.4603
      4 O           8.9510    1.6464    0.0000 O.3     1  UNL1       -0.3580
      5 O           5.3598   -2.8929    0.0000 O.2     1  UNL1       -0.2453
      6 O           3.9696    2.0535    0.0000 O.2     1  UNL1       -0.2505
      7 C           5.7552   -0.3446    0.0000 C.3     1  UNL1        0.0681
      8 C           6.1949    2.1490    0.0000 C.3     1  UNL1        0.0922
      9 C           5.2552    0.5214    0.0000 C.3     1  UNL1        0.1166
     10 C           5.4288    1.5062    0.0000 C.3     1  UNL1        0.0177
     11 C           6.6949   -0.6866    0.0000 C.3     1  UNL1        0.1323
     12 C           7.9609    1.5062    0.0000 C.3     1  UNL1        0.2110
     13 C           6.9152    2.8418    0.0000 C.2     1  UNL1       -0.0512
     14 C           5.1452   -1.1295    0.0000 C.2     1  UNL1        0.0400
     15 C           8.1346    0.5214    0.0000 C.2     1  UNL1       -0.0107
     16 C           7.6346   -0.3446    0.0000 C.2     1  UNL1       -0.0389
     17 C           5.5265    2.8929    0.0000 C.3     1  UNL1       -0.0319
     18 C           7.8544    2.4999    0.0000 C.2     1  UNL1       -0.0225
     19 C           5.7018   -1.9532    0.0000 C.2     1  UNL1        0.3357
     20 C           9.1194    0.3478    0.0000 C.3     1  UNL1       -0.0383
     21 C           4.1458   -1.0964    0.0000 C.2     1  UNL1       -0.0882
     22 C           3.6276    1.1138    0.0000 C.2     1  UNL1        0.3099
     23 C           2.6428    0.9402    0.0000 C.3     1  UNL1        0.0508
     24 C           2.0000    1.7062    0.0000 C.3     1  UNL1       -0.0525
     25 C           2.3008    0.0005    0.0000 C.3     1  UNL1       -0.0525
     26 H           4.9564   -0.0539    0.0000 H       1  UNL1        0.0427
     27 H           4.8168    0.9598    0.0000 H       1  UNL1        0.0742
     28 H           5.1833    2.0755    0.0000 H       1  UNL1        0.0332
     29 H           4.8130    1.4343    0.0000 H       1  UNL1        0.0332
     30 H           7.4936   -0.9773    0.0000 H       1  UNL1        0.0787
     31 H           6.7870    3.4483    0.0000 H       1  UNL1        0.0599
     32 H           8.0331   -0.8195    0.0000 H       1  UNL1        0.0610
     33 H           5.9877    3.3072    0.0000 H       1  UNL1        0.0260
     34 H           5.1122    3.3541    0.0000 H       1  UNL1        0.0260
     35 H           5.0653    2.4785    0.0000 H       1  UNL1        0.0260
     36 H           8.3425    2.8822    0.0000 H       1  UNL1        0.0626
     37 H           9.0117   -0.2628    0.0000 H       1  UNL1        0.0276
     38 H           9.7300    0.2401    0.0000 H       1  UNL1        0.0276
     39 H           9.2270    0.9584    0.0000 H       1  UNL1        0.0276
     40 H           9.1827    2.2216    0.0000 H       1  UNL1        0.2134
     41 H           3.8537   -0.5494    0.0000 H       1  UNL1        0.0540
     42 H           3.8181   -1.6227    0.0000 H       1  UNL1        0.0540
     43 H           3.0413    0.4652    0.0000 H       1  UNL1        0.0408
     44 H           2.4750    2.1048    0.0000 H       1  UNL1        0.0237
     45 H           1.6015    2.1812    0.0000 H       1  UNL1        0.0237
     46 H           1.5250    1.3077    0.0000 H       1  UNL1        0.0237
     47 H           1.7182    0.2125    0.0000 H       1  UNL1        0.0237
     48 H           2.0887   -0.5821    0.0000 H       1  UNL1        0.0237
     49 H           2.8834   -0.2116    0.0000 H       1  UNL1        0.0237
@<TRIPOS>BOND
     1     1     8    1
     2     1    12    1
     3     2    11    1
     4     2    19    1
     5     9     3    1
     6     3    22    1
     7    12     4    1
     8     4    40    1
     9     5    19    2
    10     6    22    2
    11     7     9    1
    12     7    11    1
    13     7    14    1
    14     7    26    1
    15     8    10    1
    16     8    13    1
    17     8    17    1
    18     9    10    1
    19     9    27    1
    20    10    28    1
    21    10    29    1
    22    11    16    1
    23    11    30    1
    24    12    15    1
    25    12    18    1
    26    13    18    2
    27    13    31    1
    28    14    19    1
    29    14    21    2
    30    15    16    2
    31    15    20    1
    32    16    32    1
    33    17    33    1
    34    17    34    1
    35    17    35    1
    36    18    36    1
    37    20    37    1
    38    20    38    1
    39    20    39    1
    40    21    41    1
    41    21    42    1
    42    22    23    1
    43    23    24    1
    44    23    25    1
    45    23    43    1
    46    24    44    1
    47    24    45    1
    48    24    46    1
    49    25    47    1
    50    25    48    1
    51    25    49    1
