@<TRIPOS>MOLECULE
IMPHY015532
 72 72 0 0 0
SMALL
GASTEIGER

@<TRIPOS>ATOM
      1 O           8.9282   -3.5000    0.0000 O.3     1  UNL1       -0.4611
      2 O           5.4641   -5.5000    0.0000 O.3     1  UNL1       -0.4611
      3 O           7.1962   -3.5000    0.0000 O.2     1  UNL1       -0.2449
      4 O           6.3301   -4.0000    0.0000 O.2     1  UNL1       -0.2449
      5 C          11.5263    2.0000    0.0000 C.3     1  UNL1       -0.0531
      6 C          12.3923    2.5000    0.0000 C.3     1  UNL1       -0.0531
      7 C          11.5263    1.0000    0.0000 C.3     1  UNL1       -0.0531
      8 C          12.3923    3.5000    0.0000 C.3     1  UNL1       -0.0531
      9 C          10.6603    0.5000    0.0000 C.3     1  UNL1       -0.0531
     10 C          13.2583    4.0000    0.0000 C.3     1  UNL1       -0.0531
     11 C          10.6603   -0.5000    0.0000 C.3     1  UNL1       -0.0530
     12 C          13.2583    5.0000    0.0000 C.3     1  UNL1       -0.0531
     13 C           9.7942   -1.0000    0.0000 C.3     1  UNL1       -0.0500
     14 C          14.1244    5.5000    0.0000 C.3     1  UNL1       -0.0533
     15 C           9.7942   -2.0000    0.0000 C.3     1  UNL1       -0.0185
     16 C          14.1244    6.5000    0.0000 C.3     1  UNL1       -0.0559
     17 C           8.9282   -2.5000    0.0000 C.3     1  UNL1        0.0928
     18 C          14.9904    7.0000    0.0000 C.3     1  UNL1       -0.0653
     19 C           8.0622   -4.0000    0.0000 C.2     1  UNL1        0.3400
     20 C           8.0622   -5.0000    0.0000 C.ar    1  UNL1        0.0729
     21 C           7.1962   -5.5000    0.0000 C.ar    1  UNL1        0.0729
     22 C           3.7320   -5.5000    0.0000 C.3     1  UNL1       -0.0188
     23 C           8.9282   -5.5000    0.0000 C.ar    1  UNL1       -0.0470
     24 C           4.5981   -5.0000    0.0000 C.3     1  UNL1        0.0928
     25 C           2.8660   -5.0000    0.0000 C.3     1  UNL1       -0.0528
     26 C           6.3301   -5.0000    0.0000 C.2     1  UNL1        0.3400
     27 C           7.1962   -6.5000    0.0000 C.ar    1  UNL1       -0.0470
     28 C           8.9282   -6.5000    0.0000 C.ar    1  UNL1       -0.0609
     29 C           8.0622   -7.0000    0.0000 C.ar    1  UNL1       -0.0609
     30 C           2.0000   -5.5000    0.0000 C.3     1  UNL1       -0.0652
     31 H          11.3142    2.5826    0.0000 H       1  UNL1        0.0265
     32 H          10.9157    1.8923    0.0000 H       1  UNL1        0.0265
     33 H          12.6044    1.9174    0.0000 H       1  UNL1        0.0265
     34 H          13.0029    2.6077    0.0000 H       1  UNL1        0.0265
     35 H          11.7383    0.4174    0.0000 H       1  UNL1        0.0265
     36 H          12.1369    1.1077    0.0000 H       1  UNL1        0.0265
     37 H          12.1803    4.0826    0.0000 H       1  UNL1        0.0265
     38 H          11.7817    3.3923    0.0000 H       1  UNL1        0.0265
     39 H          10.4482    1.0826    0.0000 H       1  UNL1        0.0265
     40 H          10.0497    0.3923    0.0000 H       1  UNL1        0.0265
     41 H          13.4704    3.4174    0.0000 H       1  UNL1        0.0265
     42 H          13.8689    4.1077    0.0000 H       1  UNL1        0.0265
     43 H          10.8723   -1.0826    0.0000 H       1  UNL1        0.0265
     44 H          11.2708   -0.3923    0.0000 H       1  UNL1        0.0265
     45 H          13.0463    5.5826    0.0000 H       1  UNL1        0.0265
     46 H          12.6477    4.8923    0.0000 H       1  UNL1        0.0265
     47 H           9.5822   -0.4174    0.0000 H       1  UNL1        0.0266
     48 H           9.1836   -1.1077    0.0000 H       1  UNL1        0.0266
     49 H          14.3364    4.9174    0.0000 H       1  UNL1        0.0265
     50 H          14.7349    5.6077    0.0000 H       1  UNL1        0.0265
     51 H          10.0063   -2.5826    0.0000 H       1  UNL1        0.0298
     52 H          10.4048   -1.8923    0.0000 H       1  UNL1        0.0298
     53 H          13.9123    7.0826    0.0000 H       1  UNL1        0.0263
     54 H          13.5138    6.3923    0.0000 H       1  UNL1        0.0263
     55 H           8.7162   -1.9174    0.0000 H       1  UNL1        0.0697
     56 H           8.3176   -2.6077    0.0000 H       1  UNL1        0.0697
     57 H          15.3004    6.4631    0.0000 H       1  UNL1        0.0230
     58 H          15.5273    7.3100    0.0000 H       1  UNL1        0.0230
     59 H          14.6804    7.5369    0.0000 H       1  UNL1        0.0230
     60 H           3.3335   -5.9750    0.0000 H       1  UNL1        0.0298
     61 H           4.1306   -5.9750    0.0000 H       1  UNL1        0.0298
     62 H           9.4651   -5.1900    0.0000 H       1  UNL1        0.0626
     63 H           3.2646   -4.5250    0.0000 H       1  UNL1        0.0264
     64 H           2.4675   -4.5250    0.0000 H       1  UNL1        0.0264
     65 H           4.9966   -4.5250    0.0000 H       1  UNL1        0.0697
     66 H           4.1996   -4.5250    0.0000 H       1  UNL1        0.0697
     67 H           6.6592   -6.8100    0.0000 H       1  UNL1        0.0626
     68 H           9.4651   -6.8100    0.0000 H       1  UNL1        0.0618
     69 H           8.0622   -7.6200    0.0000 H       1  UNL1        0.0618
     70 H           1.6900   -4.9631    0.0000 H       1  UNL1        0.0230
     71 H           1.4631   -5.8100    0.0000 H       1  UNL1        0.0230
     72 H           2.3100   -6.0369    0.0000 H       1  UNL1        0.0230
@<TRIPOS>BOND
     1     1    17    1
     2     1    19    1
     3     2    24    1
     4     2    26    1
     5     3    19    2
     6     4    26    2
     7     5     6    1
     8     5     7    1
     9     5    31    1
    10     5    32    1
    11     6     8    1
    12     6    33    1
    13     6    34    1
    14     7     9    1
    15     7    35    1
    16     7    36    1
    17     8    10    1
    18     8    37    1
    19     8    38    1
    20     9    11    1
    21     9    39    1
    22     9    40    1
    23    10    12    1
    24    10    41    1
    25    10    42    1
    26    11    13    1
    27    11    43    1
    28    11    44    1
    29    12    14    1
    30    12    45    1
    31    12    46    1
    32    13    15    1
    33    13    47    1
    34    13    48    1
    35    14    16    1
    36    14    49    1
    37    14    50    1
    38    15    17    1
    39    15    51    1
    40    15    52    1
    41    16    18    1
    42    16    53    1
    43    16    54    1
    44    17    55    1
    45    17    56    1
    46    18    57    1
    47    18    58    1
    48    18    59    1
    49    19    20    1
    50    20    21   ar
    51    20    23   ar
    52    21    26    1
    53    21    27   ar
    54    22    24    1
    55    22    25    1
    56    22    60    1
    57    22    61    1
    58    23    28   ar
    59    23    62    1
    60    24    65    1
    61    24    66    1
    62    25    30    1
    63    25    63    1
    64    25    64    1
    65    27    29   ar
    66    27    67    1
    67    28    29   ar
    68    28    68    1
    69    29    69    1
    70    30    70    1
    71    30    71    1
    72    30    72    1
