@<TRIPOS>MOLECULE
IMPHY001131
 117 118 0 0 0
SMALL
GASTEIGER

@<TRIPOS>ATOM
      1 O          12.3923    0.5000    0.0000 O.3     1  UNL1       -0.5060
      2 O          14.1244    3.5000    0.0000 O.3     1  UNL1       -0.4950
      3 O          14.1244   -3.5000    0.0000 O.2     1  UNL1       -0.4911
      4 O          12.3923   -2.5000    0.0000 O.2     1  UNL1       -0.2837
      5 O          15.8564   -0.5000    0.0000 O.2     1  UNL1       -0.2871
      6 C          17.5885    0.5000    0.0000 C.3     1  UNL1       -0.0528
      7 C          10.6603   -0.5000    0.0000 C.3     1  UNL1       -0.0528
      8 C          18.4545    1.0000    0.0000 C.3     1  UNL1       -0.0530
      9 C           9.7942   -1.0000    0.0000 C.3     1  UNL1       -0.0530
     10 C          16.7224    1.0000    0.0000 C.3     1  UNL1       -0.0490
     11 C          11.5263   -1.0000    0.0000 C.3     1  UNL1       -0.0489
     12 C          19.3205    0.5000    0.0000 C.3     1  UNL1       -0.0531
     13 C           8.9282   -0.5000    0.0000 C.3     1  UNL1       -0.0531
     14 C          15.8564    0.5000    0.0000 C.3     1  UNL1       -0.0269
     15 C          12.3923   -0.5000    0.0000 C.3     1  UNL1       -0.0232
     16 C          20.1865    1.0000    0.0000 C.3     1  UNL1       -0.0530
     17 C           8.0622   -1.0000    0.0000 C.3     1  UNL1       -0.0530
     18 C          14.9904    1.0000    0.0000 C.ar    1  UNL1       -0.0326
     19 C          13.2583   -1.0000    0.0000 C.2     1  UNL1        0.0144
     20 C          14.1244    0.5000    0.0000 C.ar    1  UNL1        0.0310
     21 C          14.1244   -0.5000    0.0000 C.2     1  UNL1        0.0396
     22 C          21.0526    0.5000    0.0000 C.3     1  UNL1       -0.0528
     23 C           7.1962   -0.5000    0.0000 C.3     1  UNL1       -0.0528
     24 C          21.9186    1.0000    0.0000 C.3     1  UNL1       -0.0496
     25 C           6.3301   -1.0000    0.0000 C.3     1  UNL1       -0.0496
     26 C          14.9904    2.0000    0.0000 C.ar    1  UNL1       -0.0160
     27 C          13.2583   -2.0000    0.0000 C.2     1  UNL1        0.2242
     28 C          13.2583    1.0000    0.0000 C.ar    1  UNL1        0.1284
     29 C          14.9904   -1.0000    0.0000 C.2     1  UNL1        0.1907
     30 C          22.7846    0.5000    0.0000 C.3     1  UNL1       -0.0348
     31 C           5.4641   -0.5000    0.0000 C.3     1  UNL1       -0.0348
     32 C          14.1244    2.5000    0.0000 C.ar    1  UNL1        0.1239
     33 C          14.1244   -2.5000    0.0000 C.2     1  UNL1        0.1705
     34 C          13.2583    2.0000    0.0000 C.ar    1  UNL1        0.0221
     35 C          14.9904   -2.0000    0.0000 C.2     1  UNL1        0.0312
     36 C           4.5981   -1.0000    0.0000 C.2     1  UNL1       -0.0879
     37 C          23.6506    1.0000    0.0000 C.2     1  UNL1       -0.0879
     38 C           3.7320   -0.5000    0.0000 C.2     1  UNL1       -0.0879
     39 C          24.5167    0.5000    0.0000 C.2     1  UNL1       -0.0879
     40 C           3.7320    0.5000    0.0000 C.3     1  UNL1       -0.0348
     41 C          24.5167   -0.5000    0.0000 C.3     1  UNL1       -0.0348
     42 C           2.8660    1.0000    0.0000 C.3     1  UNL1       -0.0499
     43 C          25.3827   -1.0000    0.0000 C.3     1  UNL1       -0.0499
     44 C          14.9904    4.0000    0.0000 C.3     1  UNL1        0.0788
     45 C          14.9904   -4.0000    0.0000 C.3     1  UNL1        0.0790
     46 C           2.8660    2.0000    0.0000 C.3     1  UNL1       -0.0556
     47 C          25.3827   -2.0000    0.0000 C.3     1  UNL1       -0.0556
     48 C           2.0000    2.5000    0.0000 C.3     1  UNL1       -0.0653
     49 C          26.2487   -2.5000    0.0000 C.3     1  UNL1       -0.0653
     50 H          17.1899    0.0251    0.0000 H       1  UNL1        0.0265
     51 H          17.9870    0.0251    0.0000 H       1  UNL1        0.0265
     52 H          11.0588   -0.0251    0.0000 H       1  UNL1        0.0265
     53 H          10.2617   -0.0251    0.0000 H       1  UNL1        0.0265
     54 H          18.8530    1.4750    0.0000 H       1  UNL1        0.0265
     55 H          18.0560    1.4750    0.0000 H       1  UNL1        0.0265
     56 H           9.3957   -1.4750    0.0000 H       1  UNL1        0.0265
     57 H          10.1928   -1.4750    0.0000 H       1  UNL1        0.0265
     58 H          17.1210    1.4750    0.0000 H       1  UNL1        0.0268
     59 H          16.3239    1.4750    0.0000 H       1  UNL1        0.0268
     60 H          11.1278   -1.4750    0.0000 H       1  UNL1        0.0268
     61 H          11.9248   -1.4750    0.0000 H       1  UNL1        0.0268
     62 H          18.9220    0.0251    0.0000 H       1  UNL1        0.0265
     63 H          19.7190    0.0251    0.0000 H       1  UNL1        0.0265
     64 H           9.3267   -0.0251    0.0000 H       1  UNL1        0.0265
     65 H           8.5297   -0.0251    0.0000 H       1  UNL1        0.0265
     66 H          15.4579    0.0251    0.0000 H       1  UNL1        0.0313
     67 H          16.2549    0.0251    0.0000 H       1  UNL1        0.0313
     68 H          12.7908   -0.0251    0.0000 H       1  UNL1        0.0315
     69 H          11.9938   -0.0251    0.0000 H       1  UNL1        0.0315
     70 H          20.5851    1.4750    0.0000 H       1  UNL1        0.0265
     71 H          19.7880    1.4750    0.0000 H       1  UNL1        0.0265
     72 H           7.6636   -1.4750    0.0000 H       1  UNL1        0.0265
     73 H           8.4607   -1.4750    0.0000 H       1  UNL1        0.0265
     74 H          20.6540    0.0251    0.0000 H       1  UNL1        0.0265
     75 H          21.4511    0.0251    0.0000 H       1  UNL1        0.0265
     76 H           7.5947   -0.0251    0.0000 H       1  UNL1        0.0265
     77 H           6.7976   -0.0251    0.0000 H       1  UNL1        0.0265
     78 H          22.3171    1.4750    0.0000 H       1  UNL1        0.0268
     79 H          21.5201    1.4750    0.0000 H       1  UNL1        0.0268
     80 H           5.9316   -1.4750    0.0000 H       1  UNL1        0.0268
     81 H           6.7287   -1.4750    0.0000 H       1  UNL1        0.0268
     82 H          15.5273    2.3100    0.0000 H       1  UNL1        0.0657
     83 H          22.3861    0.0251    0.0000 H       1  UNL1        0.0307
     84 H          23.1831    0.0251    0.0000 H       1  UNL1        0.0307
     85 H           5.8626   -0.0251    0.0000 H       1  UNL1        0.0307
     86 H           5.0656   -0.0251    0.0000 H       1  UNL1        0.0307
     87 H          12.7214    2.3100    0.0000 H       1  UNL1        0.0691
     88 H          15.5273   -2.3100    0.0000 H       1  UNL1        0.0694
     89 H           4.5981   -1.6200    0.0000 H       1  UNL1        0.0569
     90 H          23.6506    1.6200    0.0000 H       1  UNL1        0.0569
     91 H          11.8554    0.8100    0.0000 H       1  UNL1        0.2922
     92 H           3.1951   -0.8100    0.0000 H       1  UNL1        0.0569
     93 H          25.0536    0.8100    0.0000 H       1  UNL1        0.0569
     94 H           4.3426    0.3923    0.0000 H       1  UNL1        0.0307
     95 H           3.9441    1.0826    0.0000 H       1  UNL1        0.0307
     96 H          23.9061   -0.3923    0.0000 H       1  UNL1        0.0307
     97 H          24.3046   -1.0826    0.0000 H       1  UNL1        0.0307
     98 H           2.2554    1.1077    0.0000 H       1  UNL1        0.0268
     99 H           2.6540    0.4174    0.0000 H       1  UNL1        0.0268
    100 H          25.9933   -1.1077    0.0000 H       1  UNL1        0.0268
    101 H          25.5947   -0.4174    0.0000 H       1  UNL1        0.0268
    102 H          15.3004    3.4631    0.0000 H       1  UNL1        0.0660
    103 H          15.5273    4.3100    0.0000 H       1  UNL1        0.0660
    104 H          14.6804    4.5369    0.0000 H       1  UNL1        0.0660
    105 H          14.6804   -4.5369    0.0000 H       1  UNL1        0.0660
    106 H          15.5273   -4.3100    0.0000 H       1  UNL1        0.0660
    107 H          15.3004   -3.4631    0.0000 H       1  UNL1        0.0660
    108 H           3.4766    1.8923    0.0000 H       1  UNL1        0.0263
    109 H           3.0781    2.5826    0.0000 H       1  UNL1        0.0263
    110 H          24.7721   -1.8923    0.0000 H       1  UNL1        0.0263
    111 H          25.1706   -2.5826    0.0000 H       1  UNL1        0.0263
    112 H           2.3100    3.0369    0.0000 H       1  UNL1        0.0230
    113 H           1.4631    2.8100    0.0000 H       1  UNL1        0.0230
    114 H           1.6900    1.9631    0.0000 H       1  UNL1        0.0230
    115 H          25.9387   -3.0369    0.0000 H       1  UNL1        0.0230
    116 H          26.7856   -2.8100    0.0000 H       1  UNL1        0.0230
    117 H          26.5587   -1.9631    0.0000 H       1  UNL1        0.0230
@<TRIPOS>BOND
     1     1    28    1
     2     1    91    1
     3     2    32    1
     4     2    44    1
     5     3    33    1
     6     3    45    1
     7     4    27    2
     8     5    29    2
     9     6     8    1
    10     6    10    1
    11     6    50    1
    12     6    51    1
    13     7     9    1
    14     7    11    1
    15     7    52    1
    16     7    53    1
    17     8    12    1
    18     8    54    1
    19     8    55    1
    20     9    13    1
    21     9    56    1
    22     9    57    1
    23    10    14    1
    24    10    58    1
    25    10    59    1
    26    11    15    1
    27    11    60    1
    28    11    61    1
    29    12    16    1
    30    12    62    1
    31    12    63    1
    32    13    17    1
    33    13    64    1
    34    13    65    1
    35    14    18    1
    36    14    66    1
    37    14    67    1
    38    15    19    1
    39    15    68    1
    40    15    69    1
    41    16    22    1
    42    16    70    1
    43    16    71    1
    44    17    23    1
    45    17    72    1
    46    17    73    1
    47    18    20   ar
    48    18    26   ar
    49    19    21    2
    50    19    27    1
    51    20    21    1
    52    20    28   ar
    53    21    29    1
    54    22    24    1
    55    22    74    1
    56    22    75    1
    57    23    25    1
    58    23    76    1
    59    23    77    1
    60    24    30    1
    61    24    78    1
    62    24    79    1
    63    25    31    1
    64    25    80    1
    65    25    81    1
    66    26    32   ar
    67    26    82    1
    68    27    33    1
    69    28    34   ar
    70    29    35    1
    71    30    37    1
    72    30    83    1
    73    30    84    1
    74    31    36    1
    75    31    85    1
    76    31    86    1
    77    32    34   ar
    78    33    35    2
    79    34    87    1
    80    35    88    1
    81    36    38    2
    82    36    89    1
    83    37    39    2
    84    37    90    1
    85    38    40    1
    86    38    92    1
    87    39    41    1
    88    39    93    1
    89    40    42    1
    90    40    94    1
    91    40    95    1
    92    41    43    1
    93    41    96    1
    94    41    97    1
    95    42    46    1
    96    42    98    1
    97    42    99    1
    98    43    47    1
    99    43   100    1
   100    43   101    1
   101    44   102    1
   102    44   103    1
   103    44   104    1
   104    45   105    1
   105    45   106    1
   106    45   107    1
   107    46    48    1
   108    46   108    1
   109    46   109    1
   110    47    49    1
   111    47   110    1
   112    47   111    1
   113    48   112    1
   114    48   113    1
   115    48   114    1
   116    49   115    1
   117    49   116    1
   118    49   117    1
