@<TRIPOS>MOLECULE
IMPHY013634
 43 46 0 0 0
SMALL
GASTEIGER

@<TRIPOS>ATOM
      1 O           3.1743   -2.5014    0.0000 O.3     1  UNL1       -0.3615
      2 O           6.2530   -2.2435    0.0000 O.3     1  UNL1       -0.3869
      3 O           8.3027   -0.3615    0.0000 O.3     1  UNL1       -0.4581
      4 O           4.2549    0.6242    0.0000 O.3     1  UNL1       -0.3874
      5 O           2.1071   -1.4398    0.0000 O.3     1  UNL1       -0.3921
      6 O           8.5439   -2.1935    0.0000 O.2     1  UNL1       -0.2504
      7 C           4.5949   -1.1251    0.0000 C.3     1  UNL1        0.0604
      8 C           3.8131   -1.7391    0.0000 C.3     1  UNL1        0.1293
      9 C           5.4239   -1.6843    0.0000 C.3     1  UNL1        0.0924
     10 C           4.1539   -2.6730    0.0000 C.3     1  UNL1        0.0940
     11 C           5.1474   -2.6391    0.0000 C.3     1  UNL1        0.0067
     12 C           6.6450   -0.8186    0.0000 C.3     1  UNL1        0.0923
     13 C           4.8705   -0.1638    0.0000 C.3     1  UNL1        0.1031
     14 C           6.1672    1.1299    0.0000 C.3     1  UNL1        0.0166
     15 C           6.9038    0.1473    0.0000 C.3     1  UNL1        0.1333
     16 C           3.7658   -0.5659    0.0000 C.3     1  UNL1       -0.0516
     17 C           3.0465   -1.0970    0.0000 C.3     1  UNL1        0.0764
     18 C           8.0439   -1.3274    0.0000 C.2     1  UNL1        0.3137
     19 C           5.6672    1.9959    0.0000 C.3     1  UNL1       -0.0396
     20 C           6.1672    2.8620    0.0000 C.3     1  UNL1       -0.0623
     21 C           4.6672    1.9959    0.0000 C.3     1  UNL1       -0.0623
     22 H           4.0948   -3.5209    0.0000 H       1  UNL1        0.0627
     23 H           5.1033   -3.2576    0.0000 H       1  UNL1        0.0319
     24 H           5.7578   -2.7480    0.0000 H       1  UNL1        0.0319
     25 H           6.4250   -1.6397    0.0000 H       1  UNL1        0.0446
     26 H           4.2619   -0.2821    0.0000 H       1  UNL1        0.0638
     27 H           6.6846    1.4715    0.0000 H       1  UNL1        0.0349
     28 H           7.1238    0.9683    0.0000 H       1  UNL1        0.0763
     29 H           4.1126   -0.0519    0.0000 H       1  UNL1        0.0238
     30 H           3.2518   -0.2192    0.0000 H       1  UNL1        0.0238
     31 H           3.4192   -1.0799    0.0000 H       1  UNL1        0.0238
     32 H           3.5211   -0.6981    0.0000 H       1  UNL1        0.0587
     33 H           2.7361   -0.5603    0.0000 H       1  UNL1        0.0587
     34 H           6.2871    1.9959    0.0000 H       1  UNL1        0.0300
     35 H           6.2097   -2.8620    0.0000 H       1  UNL1        0.2102
     36 H           3.6409    0.5379    0.0000 H       1  UNL1        0.2100
     37 H           2.0000   -2.0505    0.0000 H       1  UNL1        0.2095
     38 H           6.7041    2.5520    0.0000 H       1  UNL1        0.0232
     39 H           6.4772    3.3989    0.0000 H       1  UNL1        0.0232
     40 H           5.6302    3.1720    0.0000 H       1  UNL1        0.0232
     41 H           4.6672    2.6159    0.0000 H       1  UNL1        0.0232
     42 H           4.0472    1.9959    0.0000 H       1  UNL1        0.0232
     43 H           4.6672    1.3759    0.0000 H       1  UNL1        0.0232
@<TRIPOS>BOND
     1     1     8    1
     2     1    10    1
     3     9     2    1
     4     2    35    1
     5     3    15    1
     6     3    18    1
     7    13     4    1
     8     4    36    1
     9     5    17    1
    10     5    37    1
    11     6    18    2
    12     7     8    1
    13     7     9    1
    14     7    13    1
    15     7    16    1
    16     8    10    1
    17     8    17    1
    18     9    11    1
    19     9    12    1
    20    10    11    1
    21    10    22    1
    22    11    23    1
    23    11    24    1
    24    12    14    1
    25    12    18    1
    26    12    25    1
    27    13    15    1
    28    13    26    1
    29    14    15    1
    30    14    19    1
    31    14    27    1
    32    15    28    1
    33    16    29    1
    34    16    30    1
    35    16    31    1
    36    17    32    1
    37    17    33    1
    38    19    20    1
    39    19    21    1
    40    19    34    1
    41    20    38    1
    42    20    39    1
    43    20    40    1
    44    21    41    1
    45    21    42    1
    46    21    43    1
