@<TRIPOS>MOLECULE
IMPHY007513
 32 34 0 0 0
SMALL
GASTEIGER

@<TRIPOS>ATOM
      1 O           3.9061    0.7500    0.0000 O.2     1  UNL1       -0.4852
      2 O           5.6660   -2.2846    0.0000 O.2     1  UNL1       -0.2834
      3 O           7.3981   -1.2846    0.0000 O.2     1  UNL1       -0.2832
      4 C           3.0000    0.2362    0.0000 C.3     1  UNL1        0.1054
      5 C           3.0000   -0.8054    0.0000 C.3     1  UNL1       -0.0092
      6 C           3.9061   -1.3193    0.0000 C.3     1  UNL1       -0.0168
      7 C           4.8000   -0.7846    0.0000 C.2     1  UNL1        0.0455
      8 C           4.8000    0.2154    0.0000 C.2     1  UNL1        0.1360
      9 C           2.0000    0.2400    0.0000 C.3     1  UNL1       -0.0252
     10 C           2.5033    1.1041    0.0000 C.3     1  UNL1       -0.0252
     11 C           5.6660    0.7154    0.0000 C.ar    1  UNL1        0.0280
     12 C           5.6660   -1.2846    0.0000 C.2     1  UNL1        0.2325
     13 C           6.5320    0.2154    0.0000 C.ar    1  UNL1        0.0362
     14 C           6.5320   -0.7846    0.0000 C.2     1  UNL1        0.2334
     15 C           5.6500    1.7569    0.0000 C.ar    1  UNL1       -0.0504
     16 C           7.4420    0.7222    0.0000 C.ar    1  UNL1       -0.0501
     17 C           6.5480    2.2846    0.0000 C.ar    1  UNL1       -0.0611
     18 C           7.4501    1.7638    0.0000 C.ar    1  UNL1       -0.0610
     19 H           2.3891   -0.6994    0.0000 H       1  UNL1        0.0307
     20 H           2.7909   -1.3891    0.0000 H       1  UNL1        0.0307
     21 H           3.5124   -1.7983    0.0000 H       1  UNL1        0.0317
     22 H           4.3107   -1.7891    0.0000 H       1  UNL1        0.0317
     23 H           2.0024    0.8600    0.0000 H       1  UNL1        0.0268
     24 H           1.3800    0.2424    0.0000 H       1  UNL1        0.0268
     25 H           1.9976   -0.3800    0.0000 H       1  UNL1        0.0268
     26 H           3.0415    1.4121    0.0000 H       1  UNL1        0.0268
     27 H           2.1954    1.6423    0.0000 H       1  UNL1        0.0268
     28 H           1.9652    0.7962    0.0000 H       1  UNL1        0.0268
     29 H           5.1095    2.0606    0.0000 H       1  UNL1        0.0625
     30 H           7.9754    0.4060    0.0000 H       1  UNL1        0.0625
     31 H           6.5456    2.9046    0.0000 H       1  UNL1        0.0618
     32 H           7.9882    2.0717    0.0000 H       1  UNL1        0.0618
@<TRIPOS>BOND
     1     1     4    1
     2     1     8    1
     3     2    12    2
     4     3    14    2
     5     4     5    1
     6     4     9    1
     7     4    10    1
     8     5     6    1
     9     5    19    1
    10     5    20    1
    11     6     7    1
    12     6    21    1
    13     6    22    1
    14     7     8    2
    15     7    12    1
    16     8    11    1
    17     9    23    1
    18     9    24    1
    19     9    25    1
    20    10    26    1
    21    10    27    1
    22    10    28    1
    23    11    13   ar
    24    11    15   ar
    25    12    14    1
    26    13    14    1
    27    13    16   ar
    28    15    17   ar
    29    15    29    1
    30    16    18   ar
    31    16    30    1
    32    17    18   ar
    33    17    31    1
    34    18    32    1
