@<TRIPOS>MOLECULE
IMPHY005517
 87 92 0 0 0
SMALL
GASTEIGER

@<TRIPOS>ATOM
      1 O           7.7662    1.7624    0.0000 O.3     1  UNL1       -0.3877
      2 O           7.7901   -1.3134    0.0000 O.3     1  UNL1       -0.3875
      3 O           6.0010   -3.4411    0.0000 O.3     1  UNL1       -0.3453
      4 O           4.3961   -0.8719    0.0000 O.2     1  UNL1       -0.3003
      5 O           4.1621    5.2761    0.0000 O.3     1  UNL1       -0.4571
      6 O           4.2690   -3.4411    0.0000 O.3     1  UNL1       -0.3431
      7 O           4.7972    6.9411    0.0000 O.2     1  UNL1       -0.2456
      8 O           6.0010   -5.4411    0.0000 O.3     1  UNL1       -0.3721
      9 O           4.2690   -6.4411    0.0000 O.3     1  UNL1       -0.3744
     10 O           2.5369   -5.4411    0.0000 O.3     1  UNL1       -0.3866
     11 C           6.8982    2.2591    0.0000 C.3     1  UNL1        0.0751
     12 C           6.9021    1.2591    0.0000 C.3     1  UNL1       -0.0077
     13 C           6.0303    2.7558    0.0000 C.3     1  UNL1        0.0036
     14 C           6.0380    0.7558    0.0000 C.3     1  UNL1       -0.0208
     15 C           6.0260   -0.2858    0.0000 C.3     1  UNL1        0.0579
     16 C           6.9260   -0.8101    0.0000 C.3     1  UNL1        0.0807
     17 C           6.2358    3.7284    0.0000 C.3     1  UNL1       -0.0081
     18 C           5.1662    2.2524    0.0000 C.3     1  UNL1       -0.0442
     19 C           5.1701    1.2524    0.0000 C.3     1  UNL1       -0.0483
     20 C           7.6327    2.9290    0.0000 C.3     1  UNL1       -0.0226
     21 C           7.8140    0.7558    0.0000 C.3     1  UNL1       -0.0447
     22 C           7.8261   -0.2858    0.0000 C.3     1  UNL1       -0.0226
     23 C           7.2241    3.8352    0.0000 C.3     1  UNL1       -0.0432
     24 C           5.0761   -0.8101    0.0000 C.3     1  UNL1       -0.0357
     25 C           6.9386   -1.8950    0.0000 C.3     1  UNL1        0.0034
     26 C           5.1624    3.2524    0.0000 C.3     1  UNL1       -0.0564
     27 C           5.0635   -1.8950    0.0000 C.3     1  UNL1       -0.0254
     28 C           6.0010   -2.4411    0.0000 C.3     1  UNL1        0.0645
     29 C           5.0418   -0.1084    0.0000 C.2     1  UNL1        0.1294
     30 C           5.5650    4.4701    0.0000 C.2     1  UNL1       -0.0222
     31 C           4.5708    4.3634    0.0000 C.3     1  UNL1        0.1147
     32 C           5.7709    5.4487    0.0000 C.2     1  UNL1        0.0252
     33 C           5.1350   -3.9411    0.0000 C.3     1  UNL1        0.1883
     34 C           4.9038    5.9468    0.0000 C.2     1  UNL1        0.3323
     35 C           5.1350   -4.9411    0.0000 C.3     1  UNL1        0.1374
     36 C           4.2690   -5.4411    0.0000 C.3     1  UNL1        0.1173
     37 C           3.4030   -3.9411    0.0000 C.3     1  UNL1        0.0873
     38 C           3.4030   -4.9411    0.0000 C.3     1  UNL1        0.1097
     39 C           2.5369   -3.4411    0.0000 C.3     1  UNL1       -0.0361
     40 C           6.0010   -6.4411    0.0000 C.3     1  UNL1        0.0371
     41 C           3.4030   -6.9411    0.0000 C.3     1  UNL1        0.0370
     42 H           7.6333    1.6926    0.0000 H       1  UNL1        0.0332
     43 H           5.3002    0.3336    0.0000 H       1  UNL1        0.0315
     44 H           6.4565    4.3078    0.0000 H       1  UNL1        0.0353
     45 H           4.9519    2.8342    0.0000 H       1  UNL1        0.0272
     46 H           4.5560    2.1424    0.0000 H       1  UNL1        0.0272
     47 H           4.5591    1.3577    0.0000 H       1  UNL1        0.0269
     48 H           4.9602    0.6690    0.0000 H       1  UNL1        0.0269
     49 H           8.0000    2.4296    0.0000 H       1  UNL1        0.0293
     50 H           8.1680    3.2418    0.0000 H       1  UNL1        0.0293
     51 H           8.4261    0.6567    0.0000 H       1  UNL1        0.0270
     52 H           8.0163    1.3418    0.0000 H       1  UNL1        0.0270
     53 H           8.0419   -0.8670    0.0000 H       1  UNL1        0.0293
     54 H           8.4357   -0.1727    0.0000 H       1  UNL1        0.0293
     55 H           7.8129    4.0293    0.0000 H       1  UNL1        0.0272
     56 H           7.0930    4.4412    0.0000 H       1  UNL1        0.0272
     57 H           4.8738   -0.2240    0.0000 H       1  UNL1        0.0276
     58 H           4.4640   -0.9091    0.0000 H       1  UNL1        0.0276
     59 H           7.1544   -2.4762    0.0000 H       1  UNL1        0.0318
     60 H           7.5482   -1.7819    0.0000 H       1  UNL1        0.0318
     61 H           5.4703    3.7905    0.0000 H       1  UNL1        0.0236
     62 H           4.6242    3.5603    0.0000 H       1  UNL1        0.0236
     63 H           4.8544    2.7143    0.0000 H       1  UNL1        0.0236
     64 H           4.4539   -1.7819    0.0000 H       1  UNL1        0.0290
     65 H           4.8477   -2.4762    0.0000 H       1  UNL1        0.0290
     66 H           6.5386   -2.7501    0.0000 H       1  UNL1        0.0598
     67 H           8.3019    2.0745    0.0000 H       1  UNL1        0.2102
     68 H           4.8320    0.4751    0.0000 H       1  UNL1        0.1033
     69 H           8.3282   -1.0055    0.0000 H       1  UNL1        0.2102
     70 H           3.9815    4.1706    0.0000 H       1  UNL1        0.0746
     71 H           4.7009    3.7573    0.0000 H       1  UNL1        0.0746
     72 H           6.3367    5.7020    0.0000 H       1  UNL1        0.0689
     73 H           5.1350   -3.3211    0.0000 H       1  UNL1        0.0938
     74 H           5.1350   -5.5611    0.0000 H       1  UNL1        0.0674
     75 H           3.7320   -5.7511    0.0000 H       1  UNL1        0.0650
     76 H           3.4030   -3.3211    0.0000 H       1  UNL1        0.0621
     77 H           3.4030   -5.5611    0.0000 H       1  UNL1        0.0646
     78 H           2.8469   -2.9042    0.0000 H       1  UNL1        0.0255
     79 H           2.0000   -3.1311    0.0000 H       1  UNL1        0.0255
     80 H           2.2269   -3.9781    0.0000 H       1  UNL1        0.0255
     81 H           2.0000   -5.1311    0.0000 H       1  UNL1        0.2100
     82 H           5.3810   -6.4411    0.0000 H       1  UNL1        0.0524
     83 H           6.0010   -7.0611    0.0000 H       1  UNL1        0.0524
     84 H           6.6210   -6.4411    0.0000 H       1  UNL1        0.0524
     85 H           3.0930   -6.4042    0.0000 H       1  UNL1        0.0524
     86 H           2.8660   -7.2511    0.0000 H       1  UNL1        0.0524
     87 H           3.7130   -7.4781    0.0000 H       1  UNL1        0.0524
@<TRIPOS>BOND
     1    11     1    1
     2     1    67    1
     3    16     2    1
     4     2    69    1
     5    28     3    1
     6    33     3    1
     7     4    29    2
     8     5    31    1
     9     5    34    1
    10     6    33    1
    11     6    37    1
    12     7    34    2
    13    35     8    1
    14     8    40    1
    15    36     9    1
    16     9    41    1
    17    38    10    1
    18    10    81    1
    19    11    12    1
    20    11    13    1
    21    11    20    1
    22    12    14    1
    23    12    21    1
    24    12    42    1
    25    13    17    1
    26    13    18    1
    27    13    26    1
    28    14    15    1
    29    14    19    1
    30    14    43    1
    31    15    16    1
    32    15    24    1
    33    15    29    1
    34    16    22    1
    35    16    25    1
    36    17    23    1
    37    17    30    1
    38    17    44    1
    39    18    19    1
    40    18    45    1
    41    18    46    1
    42    19    47    1
    43    19    48    1
    44    20    23    1
    45    20    49    1
    46    20    50    1
    47    21    22    1
    48    21    51    1
    49    21    52    1
    50    22    53    1
    51    22    54    1
    52    23    55    1
    53    23    56    1
    54    24    27    1
    55    24    57    1
    56    24    58    1
    57    25    28    1
    58    25    59    1
    59    25    60    1
    60    26    61    1
    61    26    62    1
    62    26    63    1
    63    27    28    1
    64    27    64    1
    65    27    65    1
    66    28    66    1
    67    29    68    1
    68    30    31    1
    69    30    32    2
    70    31    70    1
    71    31    71    1
    72    32    34    1
    73    32    72    1
    74    33    35    1
    75    33    73    1
    76    35    36    1
    77    35    74    1
    78    36    38    1
    79    36    75    1
    80    37    38    1
    81    37    39    1
    82    37    76    1
    83    38    77    1
    84    39    78    1
    85    39    79    1
    86    39    80    1
    87    40    82    1
    88    40    83    1
    89    40    84    1
    90    41    85    1
    91    41    86    1
    92    41    87    1
