@<TRIPOS>MOLECULE
IMPHY014530
 78 82 0 0 0
SMALL
GASTEIGER

@<TRIPOS>ATOM
      1 O           3.8674   -3.1442    0.0000 O.3     1  UNL1       -0.3847
      2 O           4.7810   -3.6650    0.0000 O.3     1  UNL1       -0.3889
      3 O           9.0712    2.8162    0.0000 O.3     1  UNL1       -0.4574
      4 O           2.9755    0.4613    0.0000 O.2     1  UNL1       -0.2920
      5 O           7.4248    3.3543    0.0000 O.3     1  UNL1       -0.3946
      6 O          10.3604    3.9730    0.0000 O.2     1  UNL1       -0.2452
      7 O          12.0067    3.4349    0.0000 O.3     1  UNL1       -0.3782
      8 C           6.5251    0.4042    0.0000 C.3     1  UNL1       -0.0257
      9 C           6.5251   -0.5958    0.0000 C.3     1  UNL1       -0.0322
     10 C           5.6591   -1.0958    0.0000 C.3     1  UNL1       -0.0315
     11 C           4.7931   -0.5958    0.0000 C.3     1  UNL1       -0.0227
     12 C           7.4714    0.7090    0.0000 C.3     1  UNL1       -0.0271
     13 C           3.8831   -1.1026    0.0000 C.3     1  UNL1        0.0646
     14 C           5.6591    0.9042    0.0000 C.3     1  UNL1       -0.0468
     15 C           7.4714   -0.9005    0.0000 C.3     1  UNL1       -0.0492
     16 C           4.7931    0.4042    0.0000 C.3     1  UNL1       -0.0484
     17 C           8.0550   -0.0958    0.0000 C.3     1  UNL1       -0.0490
     18 C           5.6752   -2.1373    0.0000 C.3     1  UNL1       -0.0207
     19 C           3.8751   -2.1442    0.0000 C.3     1  UNL1        0.1077
     20 C           4.7771   -2.6650    0.0000 C.3     1  UNL1        0.0854
     21 C           7.7820    1.6595    0.0000 C.3     1  UNL1        0.0229
     22 C           6.5251    1.4042    0.0000 C.3     1  UNL1       -0.0590
     23 C           3.8908   -0.1026    0.0000 C.3     1  UNL1       -0.0495
     24 C           2.9396   -2.6940    0.0000 C.3     1  UNL1       -0.0020
     25 C           2.9562   -0.5385    0.0000 C.2     1  UNL1        0.1647
     26 C           8.7605    1.8657    0.0000 C.3     1  UNL1        0.1122
     27 C           7.1142    2.4038    0.0000 C.3     1  UNL1        0.0507
     28 C           2.0000   -2.1514    0.0000 C.2     1  UNL1       -0.0779
     29 C           2.0084   -1.0665    0.0000 C.2     1  UNL1       -0.0224
     30 C           9.4284    1.1214    0.0000 C.3     1  UNL1        0.0065
     31 C          10.4069    1.3276    0.0000 C.2     1  UNL1       -0.0570
     32 C          10.0497    3.0224    0.0000 C.2     1  UNL1        0.3376
     33 C          10.7175    2.2781    0.0000 C.2     1  UNL1        0.0610
     34 C          11.0747    0.5833    0.0000 C.3     1  UNL1       -0.0428
     35 C          11.6960    2.4844    0.0000 C.3     1  UNL1        0.0790
     36 C          12.9852    3.6411    0.0000 C.3     1  UNL1        0.0369
     37 H           6.6151   -1.4410    0.0000 H       1  UNL1        0.0309
     38 H           6.3985   -1.5151    0.0000 H       1  UNL1        0.0307
     39 H           5.5292   -0.1708    0.0000 H       1  UNL1        0.0314
     40 H           8.3111    0.8408    0.0000 H       1  UNL1        0.0311
     41 H           6.0576    1.3792    0.0000 H       1  UNL1        0.0271
     42 H           5.2606    1.3792    0.0000 H       1  UNL1        0.0271
     43 H           7.2203   -1.4674    0.0000 H       1  UNL1        0.0268
     44 H           8.0087   -1.2097    0.0000 H       1  UNL1        0.0268
     45 H           4.5810    0.9868    0.0000 H       1  UNL1        0.0268
     46 H           4.1825    0.2966    0.0000 H       1  UNL1        0.0268
     47 H           8.5158   -0.5105    0.0000 H       1  UNL1        0.0268
     48 H           8.5158    0.3190    0.0000 H       1  UNL1        0.0268
     49 H           5.8932   -2.7177    0.0000 H       1  UNL1        0.0294
     50 H           6.2843   -2.0218    0.0000 H       1  UNL1        0.0294
     51 H           5.3158   -2.9719    0.0000 H       1  UNL1        0.0622
     52 H           7.9746    2.2488    0.0000 H       1  UNL1        0.0362
     53 H           7.1451    1.4042    0.0000 H       1  UNL1        0.0235
     54 H           6.5251    2.0242    0.0000 H       1  UNL1        0.0235
     55 H           5.9051    1.4042    0.0000 H       1  UNL1        0.0235
     56 H           4.5108   -0.1074    0.0000 H       1  UNL1        0.0240
     57 H           3.8956    0.5173    0.0000 H       1  UNL1        0.0240
     58 H           3.2708   -0.0979    0.0000 H       1  UNL1        0.0240
     59 H           2.5423   -3.1699    0.0000 H       1  UNL1        0.0336
     60 H           3.3406   -3.1668    0.0000 H       1  UNL1        0.0336
     61 H           9.5923    2.0410    0.0000 H       1  UNL1        0.0741
     62 H           6.5672    2.6958    0.0000 H       1  UNL1        0.0561
     63 H           6.7316    1.9159    0.0000 H       1  UNL1        0.0561
     64 H           3.3280   -3.4500    0.0000 H       1  UNL1        0.2103
     65 H           1.4619   -2.4594    0.0000 H       1  UNL1        0.0574
     66 H           1.4750   -0.7503    0.0000 H       1  UNL1        0.0649
     67 H           5.3191   -3.9730    0.0000 H       1  UNL1        0.2099
     68 H           8.9020    0.7938    0.0000 H       1  UNL1        0.0346
     69 H           9.6596    0.5461    0.0000 H       1  UNL1        0.0346
     70 H           7.0108    3.8158    0.0000 H       1  UNL1        0.2094
     71 H          10.6133    0.1692    0.0000 H       1  UNL1        0.0275
     72 H          11.4888    0.1218    0.0000 H       1  UNL1        0.0275
     73 H          11.5362    0.9974    0.0000 H       1  UNL1        0.0275
     74 H          11.7166    1.8647    0.0000 H       1  UNL1        0.0612
     75 H          12.3099    2.3970    0.0000 H       1  UNL1        0.0612
     76 H          13.1131    3.0344    0.0000 H       1  UNL1        0.0524
     77 H          13.5919    3.7690    0.0000 H       1  UNL1        0.0524
     78 H          12.8574    4.2478    0.0000 H       1  UNL1        0.0524
@<TRIPOS>BOND
     1    19     1    1
     2     1    64    1
     3    20     2    1
     4     2    67    1
     5     3    26    1
     6     3    32    1
     7     4    25    2
     8     5    27    1
     9     5    70    1
    10     6    32    2
    11     7    35    1
    12     7    36    1
    13     8     9    1
    14     8    12    1
    15     8    14    1
    16     8    22    1
    17     9    10    1
    18     9    15    1
    19     9    37    1
    20    10    11    1
    21    10    18    1
    22    10    38    1
    23    11    13    1
    24    11    16    1
    25    11    39    1
    26    12    17    1
    27    12    21    1
    28    12    40    1
    29    13    19    1
    30    13    23    1
    31    13    25    1
    32    14    16    1
    33    14    41    1
    34    14    42    1
    35    15    17    1
    36    15    43    1
    37    15    44    1
    38    16    45    1
    39    16    46    1
    40    17    47    1
    41    17    48    1
    42    18    20    1
    43    18    49    1
    44    18    50    1
    45    19    20    1
    46    19    24    1
    47    20    51    1
    48    21    26    1
    49    21    27    1
    50    21    52    1
    51    22    53    1
    52    22    54    1
    53    22    55    1
    54    23    56    1
    55    23    57    1
    56    23    58    1
    57    24    28    1
    58    24    59    1
    59    24    60    1
    60    25    29    1
    61    26    30    1
    62    26    61    1
    63    27    62    1
    64    27    63    1
    65    28    29    2
    66    28    65    1
    67    29    66    1
    68    30    31    1
    69    30    68    1
    70    30    69    1
    71    31    33    2
    72    31    34    1
    73    32    33    1
    74    33    35    1
    75    34    71    1
    76    34    72    1
    77    34    73    1
    78    35    74    1
    79    35    75    1
    80    36    76    1
    81    36    77    1
    82    36    78    1
