@<TRIPOS>MOLECULE
IMPHY003764
 31 32 0 0 0
SMALL
GASTEIGER

@<TRIPOS>ATOM
      1 O           2.5664   -0.7348    0.0000 O.3     1  UNL1       -0.3867
      2 O           4.3233    1.1806    0.0000 O.3     1  UNL1       -0.4676
      3 O           2.6760    0.6454    0.0000 O.2     1  UNL1       -0.2504
      4 N           4.9143   -1.8226    0.0000 N.3     1  UNL1       -0.2958
      5 C           4.9143   -0.8226    0.0000 C.3     1  UNL1        0.0262
      6 C           3.9632   -0.5136    0.0000 C.3     1  UNL1        0.1014
      7 C           3.3754   -1.3226    0.0000 C.3     1  UNL1        0.0902
      8 C           3.9632   -2.1316    0.0000 C.3     1  UNL1        0.0287
      9 C           5.8605   -0.5179    0.0000 C.3     1  UNL1       -0.0353
     10 C           5.8605   -2.1274    0.0000 C.3     1  UNL1       -0.0007
     11 C           6.4441   -1.3226    0.0000 C.3     1  UNL1       -0.0388
     12 C           2.5664   -1.9104    0.0000 C.3     1  UNL1       -0.0340
     13 C           3.6542    0.4374    0.0000 C.2     1  UNL1        0.3143
     14 C           4.0143    2.1316    0.0000 C.3     1  UNL1        0.0817
     15 H           4.9154    0.0274    0.0000 H       1  UNL1        0.0471
     16 H           3.3508   -0.4166    0.0000 H       1  UNL1        0.0458
     17 H           3.4263   -2.4416    0.0000 H       1  UNL1        0.0455
     18 H           4.2154   -2.6980    0.0000 H       1  UNL1        0.0455
     19 H           6.3979   -0.2087    0.0000 H       1  UNL1        0.0281
     20 H           5.6094    0.0490    0.0000 H       1  UNL1        0.0281
     21 H           5.6094   -2.6943    0.0000 H       1  UNL1        0.0427
     22 H           6.3979   -2.4366    0.0000 H       1  UNL1        0.0427
     23 H           6.9050   -1.7374    0.0000 H       1  UNL1        0.0278
     24 H           6.9050   -0.9079    0.0000 H       1  UNL1        0.0278
     25 H           2.2020   -1.4088    0.0000 H       1  UNL1        0.0258
     26 H           2.0648   -2.2748    0.0000 H       1  UNL1        0.0258
     27 H           2.9308   -2.4120    0.0000 H       1  UNL1        0.0258
     28 H           2.0000   -0.9870    0.0000 H       1  UNL1        0.2102
     29 H           4.6040    2.3232    0.0000 H       1  UNL1        0.0661
     30 H           3.8227    2.7213    0.0000 H       1  UNL1        0.0661
     31 H           3.4246    1.9401    0.0000 H       1  UNL1        0.0661
@<TRIPOS>BOND
     1     7     1    1
     2     1    28    1
     3     2    13    1
     4     2    14    1
     5     3    13    2
     6     4     5    1
     7     4     8    1
     8     4    10    1
     9     5     6    1
    10     5     9    1
    11     5    15    1
    12     6     7    1
    13     6    13    1
    14     6    16    1
    15     7     8    1
    16     7    12    1
    17     8    17    1
    18     8    18    1
    19     9    11    1
    20     9    19    1
    21     9    20    1
    22    10    11    1
    23    10    21    1
    24    10    22    1
    25    11    23    1
    26    11    24    1
    27    12    25    1
    28    12    26    1
    29    12    27    1
    30    14    29    1
    31    14    30    1
    32    14    31    1
