@<TRIPOS>MOLECULE
IMPHY007061
 43 44 0 0 0
SMALL
GASTEIGER

@<TRIPOS>ATOM
      1 O           3.4352    0.6316    0.0000 O.3     1  UNL1       -0.3647
      2 O           2.6176   -2.6813    0.0000 O.3     1  UNL1       -0.3889
      3 C           4.6718   -0.2170    0.0000 C.3     1  UNL1       -0.0096
      4 C           4.4130   -1.1829    0.0000 C.3     1  UNL1        0.0932
      5 C           4.3012    1.1316    0.0000 C.3     1  UNL1        0.0707
      6 C           2.6982   -0.8353    0.0000 C.3     1  UNL1       -0.0187
      7 C           3.0403   -1.7750    0.0000 C.3     1  UNL1        0.0842
      8 C           6.0707   -0.7258    0.0000 C.3     1  UNL1       -0.0448
      9 C           5.8119   -1.6918    0.0000 C.3     1  UNL1       -0.0212
     10 C           5.0083    1.8387    0.0000 C.3     1  UNL1       -0.0203
     11 C           4.1541   -2.1489    0.0000 C.3     1  UNL1       -0.0334
     12 C           4.0424    2.0976    0.0000 C.3     1  UNL1       -0.0355
     13 C           5.9742    1.5799    0.0000 C.3     1  UNL1       -0.0319
     14 C           6.6813    2.2870    0.0000 C.2     1  UNL1       -0.0852
     15 C           7.6473    2.0282    0.0000 C.2     1  UNL1       -0.0796
     16 C           8.3544    2.7353    0.0000 C.3     1  UNL1       -0.0440
     17 C           7.9061    1.0623    0.0000 C.3     1  UNL1       -0.0440
     18 H           4.6578   -0.8369    0.0000 H       1  UNL1        0.0329
     19 H           2.5040   -0.2465    0.0000 H       1  UNL1        0.0295
     20 H           2.1125   -1.0385    0.0000 H       1  UNL1        0.0295
     21 H           3.4722   -2.2197    0.0000 H       1  UNL1        0.0622
     22 H           6.6647   -0.9036    0.0000 H       1  UNL1        0.0270
     23 H           6.2656   -0.1373    0.0000 H       1  UNL1        0.0270
     24 H           5.6170   -2.2803    0.0000 H       1  UNL1        0.0294
     25 H           6.4059   -1.8695    0.0000 H       1  UNL1        0.0294
     26 H           5.2703    2.4006    0.0000 H       1  UNL1        0.0296
     27 H           4.5004    2.1944    0.0000 H       1  UNL1        0.0296
     28 H           3.5553   -1.9884    0.0000 H       1  UNL1        0.0258
     29 H           3.9937   -2.7477    0.0000 H       1  UNL1        0.0258
     30 H           4.7530   -2.3093    0.0000 H       1  UNL1        0.0258
     31 H           4.6412    2.2580    0.0000 H       1  UNL1        0.0257
     32 H           3.8819    2.6964    0.0000 H       1  UNL1        0.0257
     33 H           3.4435    1.9371    0.0000 H       1  UNL1        0.0257
     34 H           5.7122    1.0180    0.0000 H       1  UNL1        0.0308
     35 H           6.4821    1.2243    0.0000 H       1  UNL1        0.0308
     36 H           2.0000   -2.7353    0.0000 H       1  UNL1        0.2099
     37 H           6.5209    2.8859    0.0000 H       1  UNL1        0.0571
     38 H           7.3072    0.9018    0.0000 H       1  UNL1        0.0274
     39 H           8.0666    0.4634    0.0000 H       1  UNL1        0.0274
     40 H           8.5049    1.2227    0.0000 H       1  UNL1        0.0274
     41 H           8.7928    2.2969    0.0000 H       1  UNL1        0.0274
     42 H           8.7928    3.1737    0.0000 H       1  UNL1        0.0274
     43 H           7.9160    3.1737    0.0000 H       1  UNL1        0.0274
@<TRIPOS>BOND
     1     1     4    1
     2     1     5    1
     3     2     7    1
     4     2    36    1
     5     3     5    1
     6     3     6    1
     7     3     8    1
     8     3    18    1
     9     4     7    1
    10     4     9    1
    11     4    11    1
    12     5    10    1
    13     5    12    1
    14     6     7    1
    15     6    19    1
    16     6    20    1
    17     7    21    1
    18     8     9    1
    19     8    22    1
    20     8    23    1
    21     9    24    1
    22     9    25    1
    23    10    13    1
    24    10    26    1
    25    10    27    1
    26    11    28    1
    27    11    29    1
    28    11    30    1
    29    12    31    1
    30    12    32    1
    31    12    33    1
    32    13    14    1
    33    13    34    1
    34    13    35    1
    35    14    15    2
    36    14    37    1
    37    15    16    1
    38    15    17    1
    39    16    41    1
    40    16    42    1
    41    16    43    1
    42    17    38    1
    43    17    39    1
    44    17    40    1
