@<TRIPOS>MOLECULE
IMPHY004155
 51 54 0 0 0
SMALL
GASTEIGER

@<TRIPOS>ATOM
      1 O           5.1350   -1.6725    0.0000 O.3     1  UNL1       -0.3221
      2 O           6.8671   -1.6725    0.0000 O.3     1  UNL1       -0.4569
      3 O           5.1350   -4.6725    0.0000 O.3     1  UNL1       -0.3863
      4 O           6.8671   -3.6725    0.0000 O.3     1  UNL1       -0.3829
      5 O           3.4030   -3.6725    0.0000 O.3     1  UNL1       -0.3860
      6 O           2.5369   -2.1725    0.0000 O.3     1  UNL1       -0.4788
      7 O           3.4030   -0.6725    0.0000 O.2     1  UNL1       -0.2480
      8 O           8.6431    1.3343    0.0000 O.2     1  UNL1       -0.4544
      9 O           5.1350   -0.6725    0.0000 O.3     1  UNL1       -0.5009
     10 O           5.1350    1.3275    0.0000 O.3     1  UNL1       -0.5027
     11 O           5.9793    2.8589    0.0000 O.2     1  UNL1       -0.2869
     12 O          12.1229    4.3625    0.0000 O.3     1  UNL1       -0.5068
     13 C           5.1350   -3.6725    0.0000 C.3     1  UNL1        0.1157
     14 C           6.0010   -3.1725    0.0000 C.3     1  UNL1        0.1455
     15 C           4.2690   -3.1725    0.0000 C.3     1  UNL1        0.1202
     16 C           6.0010   -2.1725    0.0000 C.3     1  UNL1        0.2314
     17 C           4.2690   -2.1725    0.0000 C.3     1  UNL1        0.1869
     18 C           3.4030   -1.6725    0.0000 C.2     1  UNL1        0.3367
     19 C           6.8671   -0.6725    0.0000 C.ar    1  UNL1        0.1724
     20 C           7.7331   -0.1725    0.0000 C.ar    1  UNL1        0.0271
     21 C           6.0010   -0.1725    0.0000 C.ar    1  UNL1        0.2019
     22 C           7.7331    0.8275    0.0000 C.ar    1  UNL1        0.1465
     23 C           6.8671    1.3275    0.0000 C.ar    1  UNL1        0.1091
     24 C           6.0010    0.8275    0.0000 C.ar    1  UNL1        0.1766
     25 C           6.8510    2.3690    0.0000 C.ar    1  UNL1        0.1967
     26 C           8.6511    2.3759    0.0000 C.ar    1  UNL1        0.1392
     27 C           7.7490    2.8967    0.0000 C.ar    1  UNL1        0.0288
     28 C           9.5191    2.8726    0.0000 C.ar    1  UNL1        0.0176
     29 C          10.3832    2.3692    0.0000 C.ar    1  UNL1       -0.0476
     30 C           9.5229    3.8726    0.0000 C.ar    1  UNL1       -0.0476
     31 C          11.2511    2.8659    0.0000 C.ar    1  UNL1       -0.0195
     32 C          10.3909    4.3692    0.0000 C.ar    1  UNL1       -0.0195
     33 C          11.2550    3.8659    0.0000 C.ar    1  UNL1        0.1169
     34 H           5.6720   -3.9825    0.0000 H       1  UNL1        0.0648
     35 H           6.5380   -2.8625    0.0000 H       1  UNL1        0.0683
     36 H           4.2690   -3.7925    0.0000 H       1  UNL1        0.0652
     37 H           6.0010   -1.5525    0.0000 H       1  UNL1        0.1084
     38 H           4.2690   -1.5525    0.0000 H       1  UNL1        0.0742
     39 H           5.6720   -4.9825    0.0000 H       1  UNL1        0.2100
     40 H           7.4040   -3.3625    0.0000 H       1  UNL1        0.2102
     41 H           3.4030   -4.2925    0.0000 H       1  UNL1        0.2100
     42 H           8.2700   -0.4825    0.0000 H       1  UNL1        0.0692
     43 H           2.0000   -1.8625    0.0000 H       1  UNL1        0.2951
     44 H           7.7466    3.5167    0.0000 H       1  UNL1        0.0693
     45 H           4.5981   -0.3625    0.0000 H       1  UNL1        0.2924
     46 H           4.5981    1.0175    0.0000 H       1  UNL1        0.2923
     47 H          10.3808    1.7492    0.0000 H       1  UNL1        0.0626
     48 H           8.9872    4.1846    0.0000 H       1  UNL1        0.0626
     49 H          11.7868    2.5538    0.0000 H       1  UNL1        0.0654
     50 H          10.3933    4.9892    0.0000 H       1  UNL1        0.0654
     51 H          12.1253    4.9825    0.0000 H       1  UNL1        0.2921
@<TRIPOS>BOND
     1     1    16    1
     2     1    17    1
     3    16     2    1
     4     2    19    1
     5    13     3    1
     6     3    39    1
     7    14     4    1
     8     4    40    1
     9    15     5    1
    10     5    41    1
    11     6    18    1
    12     6    43    1
    13     7    18    2
    14     8    22   ar
    15     8    26   ar
    16     9    21    1
    17     9    45    1
    18    10    24    1
    19    10    46    1
    20    11    25    2
    21    12    33    1
    22    12    51    1
    23    13    14    1
    24    13    15    1
    25    13    34    1
    26    14    16    1
    27    14    35    1
    28    15    17    1
    29    15    36    1
    30    16    37    1
    31    17    18    1
    32    17    38    1
    33    19    20   ar
    34    19    21   ar
    35    20    22   ar
    36    20    42    1
    37    21    24   ar
    38    22    23   ar
    39    23    24   ar
    40    23    25   ar
    41    25    27   ar
    42    26    27   ar
    43    26    28    1
    44    27    44    1
    45    28    29   ar
    46    28    30   ar
    47    29    31   ar
    48    29    47    1
    49    30    32   ar
    50    30    48    1
    51    31    33   ar
    52    31    49    1
    53    32    33   ar
    54    32    50    1
