@<TRIPOS>MOLECULE
IMPHY007494
 60 62 0 0 0
SMALL
GASTEIGER

@<TRIPOS>ATOM
      1 O          10.4114    0.6003    0.0000 O.3     1  UNL1       -0.4567
      2 O           6.8671   -0.5950    0.0000 O.3     1  UNL1       -0.3408
      3 O           5.1350   -0.5950    0.0000 O.3     1  UNL1       -0.3405
      4 O           6.8671   -2.5950    0.0000 O.3     1  UNL1       -0.3841
      5 O           5.1350   -3.5950    0.0000 O.3     1  UNL1       -0.3864
      6 O           3.4030   -2.5950    0.0000 O.3     1  UNL1       -0.3865
      7 O          11.9950    1.4050    0.0000 O.2     1  UNL1       -0.2505
      8 O           2.5369   -1.0950    0.0000 O.3     1  UNL1       -0.3924
      9 O           6.0010    3.9050    0.0000 O.2     1  UNL1       -0.2960
     10 C           9.4651    1.9050    0.0000 C.3     1  UNL1        0.0128
     11 C           9.4651    0.9050    0.0000 C.3     1  UNL1        0.1251
     12 C          10.4114    2.2097    0.0000 C.3     1  UNL1        0.0601
     13 C           8.5991    2.4050    0.0000 C.3     1  UNL1       -0.0417
     14 C           6.0010   -2.0950    0.0000 C.3     1  UNL1        0.1341
     15 C           6.0010   -1.0950    0.0000 C.3     1  UNL1        0.1886
     16 C           5.1350   -2.5950    0.0000 C.3     1  UNL1        0.1141
     17 C           4.2690   -2.0950    0.0000 C.3     1  UNL1        0.1119
     18 C           6.8671    0.4050    0.0000 C.3     1  UNL1        0.0861
     19 C           4.2690   -1.0950    0.0000 C.3     1  UNL1        0.1130
     20 C           8.5991    0.4050    0.0000 C.2     1  UNL1       -0.0423
     21 C          10.9950    1.4050    0.0000 C.2     1  UNL1        0.3109
     22 C           7.7331    1.9050    0.0000 C.3     1  UNL1       -0.0246
     23 C           7.7331    0.9050    0.0000 C.2     1  UNL1       -0.0444
     24 C          10.7220    3.1602    0.0000 C.3     1  UNL1       -0.0519
     25 C           6.0010    0.9050    0.0000 C.3     1  UNL1       -0.0038
     26 C           6.8671    2.4050    0.0000 C.2     1  UNL1       -0.0120
     27 C           3.4030   -0.5950    0.0000 C.3     1  UNL1        0.0730
     28 C           6.0010    1.9050    0.0000 C.2     1  UNL1       -0.0750
     29 C           8.1188    1.3646    0.0000 C.3     1  UNL1       -0.0412
     30 C           6.8671    3.4050    0.0000 C.2     1  UNL1        0.1460
     31 H           9.5551    2.7502    0.0000 H       1  UNL1        0.0348
     32 H           9.5551    0.0598    0.0000 H       1  UNL1        0.0782
     33 H          11.0239    2.3059    0.0000 H       1  UNL1        0.0415
     34 H           8.9976    2.8800    0.0000 H       1  UNL1        0.0273
     35 H           8.2006    2.8800    0.0000 H       1  UNL1        0.0273
     36 H           6.0010   -2.7150    0.0000 H       1  UNL1        0.0671
     37 H           6.5380   -1.4050    0.0000 H       1  UNL1        0.0938
     38 H           4.5981   -2.9050    0.0000 H       1  UNL1        0.0648
     39 H           3.7320   -1.7850    0.0000 H       1  UNL1        0.0647
     40 H           7.4040    0.0950    0.0000 H       1  UNL1        0.0647
     41 H           4.2690   -0.4750    0.0000 H       1  UNL1        0.0647
     42 H           8.5991   -0.2150    0.0000 H       1  UNL1        0.0609
     43 H           7.3346    1.4300    0.0000 H       1  UNL1        0.0314
     44 H           8.1316    1.4300    0.0000 H       1  UNL1        0.0314
     45 H          11.3113    2.9676    0.0000 H       1  UNL1        0.0238
     46 H          10.9146    3.7496    0.0000 H       1  UNL1        0.0238
     47 H          10.1327    3.3529    0.0000 H       1  UNL1        0.0238
     48 H           5.3905    1.0127    0.0000 H       1  UNL1        0.0336
     49 H           5.7890    0.3224    0.0000 H       1  UNL1        0.0336
     50 H           3.8015   -0.1201    0.0000 H       1  UNL1        0.0584
     51 H           3.0044   -0.1201    0.0000 H       1  UNL1        0.0584
     52 H           5.4641    2.2150    0.0000 H       1  UNL1        0.0577
     53 H           8.5937    0.9661    0.0000 H       1  UNL1        0.0275
     54 H           8.5173    1.8396    0.0000 H       1  UNL1        0.0275
     55 H           7.6438    1.7632    0.0000 H       1  UNL1        0.0275
     56 H           6.8671   -3.2150    0.0000 H       1  UNL1        0.2101
     57 H           4.5981   -3.9050    0.0000 H       1  UNL1        0.2100
     58 H           3.4030   -3.2150    0.0000 H       1  UNL1        0.2100
     59 H           7.4040    3.7150    0.0000 H       1  UNL1        0.1078
     60 H           2.0000   -0.7850    0.0000 H       1  UNL1        0.2095
@<TRIPOS>BOND
     1     1    11    1
     2     1    21    1
     3    15     2    1
     4    18     2    1
     5     3    15    1
     6     3    19    1
     7    14     4    1
     8     4    56    1
     9    16     5    1
    10     5    57    1
    11    17     6    1
    12     6    58    1
    13     7    21    2
    14     8    27    1
    15     8    60    1
    16     9    30    2
    17    10    11    1
    18    10    12    1
    19    10    13    1
    20    10    31    1
    21    11    20    1
    22    11    32    1
    23    12    21    1
    24    12    24    1
    25    12    33    1
    26    13    22    1
    27    13    34    1
    28    13    35    1
    29    14    15    1
    30    14    16    1
    31    14    36    1
    32    15    37    1
    33    16    17    1
    34    16    38    1
    35    17    19    1
    36    17    39    1
    37    18    23    1
    38    18    25    1
    39    18    40    1
    40    19    27    1
    41    19    41    1
    42    20    23    2
    43    20    42    1
    44    22    26    1
    45    22    43    1
    46    22    44    1
    47    23    29    1
    48    24    45    1
    49    24    46    1
    50    24    47    1
    51    25    28    1
    52    25    48    1
    53    25    49    1
    54    26    28    2
    55    26    30    1
    56    27    50    1
    57    27    51    1
    58    28    52    1
    59    29    53    1
    60    29    54    1
    61    29    55    1
    62    30    59    1
