@<TRIPOS>MOLECULE
IMPHY009241
 85 86 0 0 0
SMALL
GASTEIGER

@<TRIPOS>ATOM
      1 O          11.1228    1.7191    0.0000 O.2     1  UNL1       -0.5097
      2 O          12.8548   -1.2809    0.0000 O.2     1  UNL1       -0.5056
      3 O          14.5869    1.7191    0.0000 O.2     1  UNL1       -0.2908
      4 O           9.8372    1.2512    0.0000 O.3     1  UNL1       -0.5060
      5 O          10.4387   -2.1602    0.0000 O.3     1  UNL1       -0.5055
      6 O          14.5869   -1.2809    0.0000 O.2     1  UNL1       -0.2915
      7 O           7.1836   -0.9755    0.0000 O.3     1  UNL1       -0.5055
      8 O           9.1119   -3.2736    0.0000 O.2     1  UNL1       -0.2915
      9 C          12.8548    1.7191    0.0000 C.3     1  UNL1        0.0853
     10 C          11.9888    1.2191    0.0000 C.2     1  UNL1        0.1141
     11 C          11.9888    0.2191    0.0000 C.2     1  UNL1        0.0375
     12 C          13.7209    1.2191    0.0000 C.2     1  UNL1        0.1829
     13 C          11.1228   -0.2809    0.0000 C.3     1  UNL1        0.0112
     14 C          13.7209    0.2191    0.0000 C.2     1  UNL1        0.1026
     15 C          13.3548    2.5852    0.0000 C.3     1  UNL1       -0.0458
     16 C          12.3548    2.5852    0.0000 C.3     1  UNL1       -0.0458
     17 C          12.8548   -0.2809    0.0000 C.2     1  UNL1        0.1374
     18 C          10.1380   -0.4545    0.0000 C.ar    1  UNL1        0.0411
     19 C          14.5869   -0.2809    0.0000 C.2     1  UNL1        0.1726
     20 C          15.4529    0.2191    0.0000 C.3     1  UNL1        0.0167
     21 C           9.4952    0.3115    0.0000 C.ar    1  UNL1        0.1308
     22 C           9.7959   -1.3941    0.0000 C.ar    1  UNL1        0.1378
     23 C           8.5104    0.1379    0.0000 C.ar    1  UNL1        0.0403
     24 C           8.8112   -1.5678    0.0000 C.ar    1  UNL1        0.1011
     25 C           8.1684   -0.8018    0.0000 C.ar    1  UNL1        0.1378
     26 C           7.8676    0.9039    0.0000 C.3     1  UNL1       -0.0023
     27 C           8.4691   -2.5075    0.0000 C.2     1  UNL1        0.1727
     28 C          16.3189   -0.2809    0.0000 C.3     1  UNL1       -0.0556
     29 C          15.4529    1.2191    0.0000 C.3     1  UNL1       -0.0556
     30 C           7.4843   -2.6812    0.0000 C.3     1  UNL1        0.0167
     31 C           6.8828    0.7303    0.0000 C.2     1  UNL1       -0.0805
     32 C           6.2400    1.4963    0.0000 C.2     1  UNL1       -0.0759
     33 C           7.1422   -3.6208    0.0000 C.3     1  UNL1       -0.0556
     34 C           6.8415   -1.9152    0.0000 C.3     1  UNL1       -0.0556
     35 C           5.2552    1.3227    0.0000 C.3     1  UNL1       -0.0286
     36 C           4.6124    2.0887    0.0000 C.3     1  UNL1       -0.0308
     37 C           6.5820    2.4360    0.0000 C.3     1  UNL1       -0.0438
     38 C           3.6276    1.9151    0.0000 C.2     1  UNL1       -0.0850
     39 C           2.9848    2.6811    0.0000 C.2     1  UNL1       -0.0796
     40 C           2.0000    2.5075    0.0000 C.3     1  UNL1       -0.0440
     41 C           3.3268    3.6208    0.0000 C.3     1  UNL1       -0.0440
     42 H          10.9798   -0.8842    0.0000 H       1  UNL1        0.0366
     43 H          10.9107    0.3017    0.0000 H       1  UNL1        0.0366
     44 H          13.8918    2.2752    0.0000 H       1  UNL1        0.0243
     45 H          12.8918    2.8952    0.0000 H       1  UNL1        0.0243
     46 H          12.0448    3.1221    0.0000 H       1  UNL1        0.0243
     47 H          13.6648    3.1221    0.0000 H       1  UNL1        0.0243
     48 H          12.8179    2.8952    0.0000 H       1  UNL1        0.0243
     49 H          11.8179    2.2752    0.0000 H       1  UNL1        0.0243
     50 H          14.9160    0.5291    0.0000 H       1  UNL1        0.0375
     51 H          10.5858    1.4091    0.0000 H       1  UNL1        0.2917
     52 H           8.4045    1.2139    0.0000 H       1  UNL1        0.0358
     53 H           7.6555    1.4865    0.0000 H       1  UNL1        0.0358
     54 H          13.3918   -1.5909    0.0000 H       1  UNL1        0.2922
     55 H          16.0089   -0.8178    0.0000 H       1  UNL1        0.0236
     56 H          16.8559   -0.5909    0.0000 H       1  UNL1        0.0236
     57 H          16.6289    0.2561    0.0000 H       1  UNL1        0.0236
     58 H          16.0729    1.2191    0.0000 H       1  UNL1        0.0236
     59 H          15.4529    1.8391    0.0000 H       1  UNL1        0.0236
     60 H          14.8329    1.2191    0.0000 H       1  UNL1        0.0236
     61 H           7.8828   -3.1561    0.0000 H       1  UNL1        0.0375
     62 H           6.6707    0.1477    0.0000 H       1  UNL1        0.0575
     63 H           9.4387    1.7262    0.0000 H       1  UNL1        0.2922
     64 H          10.2267   -2.7428    0.0000 H       1  UNL1        0.2922
     65 H           7.3165   -1.5166    0.0000 H       1  UNL1        0.0236
     66 H           6.4430   -1.4402    0.0000 H       1  UNL1        0.0236
     67 H           6.3666   -2.3137    0.0000 H       1  UNL1        0.0236
     68 H           6.5596   -3.4087    0.0000 H       1  UNL1        0.0236
     69 H           6.9301   -4.2034    0.0000 H       1  UNL1        0.0236
     70 H           7.7248   -3.8329    0.0000 H       1  UNL1        0.0236
     71 H           4.7183    1.0127    0.0000 H       1  UNL1        0.0313
     72 H           5.4672    0.7401    0.0000 H       1  UNL1        0.0313
     73 H           6.7850   -0.5005    0.0000 H       1  UNL1        0.2922
     74 H           5.1493    2.3987    0.0000 H       1  UNL1        0.0310
     75 H           4.4004    2.6713    0.0000 H       1  UNL1        0.0310
     76 H           7.1646    2.2240    0.0000 H       1  UNL1        0.0274
     77 H           6.7941    3.0186    0.0000 H       1  UNL1        0.0274
     78 H           5.9994    2.6481    0.0000 H       1  UNL1        0.0274
     79 H           3.4155    1.3325    0.0000 H       1  UNL1        0.0572
     80 H           3.9094    3.4088    0.0000 H       1  UNL1        0.0274
     81 H           3.5389    4.2034    0.0000 H       1  UNL1        0.0274
     82 H           2.7442    3.8329    0.0000 H       1  UNL1        0.0274
     83 H           1.8923    3.1181    0.0000 H       1  UNL1        0.0274
     84 H           1.3894    2.3998    0.0000 H       1  UNL1        0.0274
     85 H           2.1077    1.8969    0.0000 H       1  UNL1        0.0274
@<TRIPOS>BOND
     1     1    10    1
     2     1    51    1
     3     2    17    1
     4     2    54    1
     5     3    12    2
     6     4    21    1
     7     4    63    1
     8     5    22    1
     9     5    64    1
    10     6    19    2
    11     7    25    1
    12     7    73    1
    13     8    27    2
    14     9    10    1
    15     9    12    1
    16     9    15    1
    17     9    16    1
    18    10    11    2
    19    11    13    1
    20    11    17    1
    21    12    14    1
    22    13    18    1
    23    13    42    1
    24    13    43    1
    25    14    17    2
    26    14    19    1
    27    15    44    1
    28    15    47    1
    29    15    48    1
    30    16    45    1
    31    16    46    1
    32    16    49    1
    33    18    21   ar
    34    18    22   ar
    35    19    20    1
    36    20    28    1
    37    20    29    1
    38    20    50    1
    39    21    23   ar
    40    22    24   ar
    41    23    25   ar
    42    23    26    1
    43    24    25   ar
    44    24    27    1
    45    26    31    1
    46    26    52    1
    47    26    53    1
    48    27    30    1
    49    28    55    1
    50    28    56    1
    51    28    57    1
    52    29    58    1
    53    29    59    1
    54    29    60    1
    55    30    33    1
    56    30    34    1
    57    30    61    1
    58    31    32    2
    59    31    62    1
    60    32    35    1
    61    32    37    1
    62    33    68    1
    63    33    69    1
    64    33    70    1
    65    34    65    1
    66    34    66    1
    67    34    67    1
    68    35    36    1
    69    35    71    1
    70    35    72    1
    71    36    38    1
    72    36    74    1
    73    36    75    1
    74    37    76    1
    75    37    77    1
    76    37    78    1
    77    38    39    2
    78    38    79    1
    79    39    40    1
    80    39    41    1
    81    40    83    1
    82    40    84    1
    83    40    85    1
    84    41    80    1
    85    41    81    1
    86    41    82    1
