@<TRIPOS>MOLECULE
IMPHY012684
 82 86 0 0 0
SMALL
GASTEIGER

@<TRIPOS>ATOM
      1 O           6.2825   -3.1206    0.0000 O.3     1  UNL1       -0.3911
      2 O          11.6346    3.0930    0.0000 O.3     1  UNL1       -0.3912
      3 O           4.4990   -3.0931    0.0000 O.3     1  UNL1       -0.3944
      4 O           2.0000   -1.3707    0.0000 O.2     1  UNL1       -0.3005
      5 C           8.0267   -0.0513    0.0000 C.3     1  UNL1       -0.0193
      6 C           8.0267    0.9487    0.0000 C.3     1  UNL1       -0.0257
      7 C           8.9206    1.4833    0.0000 C.3     1  UNL1       -0.0250
      8 C           7.1607   -0.5513    0.0000 C.3     1  UNL1       -0.0028
      9 C           9.8267    0.9695    0.0000 C.3     1  UNL1       -0.0278
     10 C           8.9206   -0.5860    0.0000 C.3     1  UNL1       -0.0463
     11 C           6.2946   -0.0513    0.0000 C.2     1  UNL1       -0.0631
     12 C           9.8267   -0.0722    0.0000 C.3     1  UNL1       -0.0486
     13 C           5.3846   -0.5582    0.0000 C.3     1  UNL1       -0.0084
     14 C           5.3766   -1.5998    0.0000 C.3     1  UNL1        0.0263
     15 C          10.7705    1.5047    0.0000 C.3     1  UNL1       -0.0056
     16 C           7.1767   -1.5928    0.0000 C.3     1  UNL1       -0.0166
     17 C           7.1607    1.4487    0.0000 C.3     1  UNL1       -0.0306
     18 C           8.8955    2.5680    0.0000 C.3     1  UNL1       -0.0447
     19 C           6.2787   -2.1206    0.0000 C.3     1  UNL1        0.0643
     20 C           8.3688   -0.9910    0.0000 C.3     1  UNL1       -0.0585
     21 C           6.2946    0.9487    0.0000 C.2     1  UNL1       -0.0836
     22 C          10.7705    2.5897    0.0000 C.3     1  UNL1        0.0606
     23 C           8.0508    1.9766    0.0000 C.3     1  UNL1       -0.0590
     24 C           7.8034   -1.3174    0.0000 C.3     1  UNL1       -0.0552
     25 C           9.8267    3.1250    0.0000 C.3     1  UNL1       -0.0258
     26 C           4.4578    0.0059    0.0000 C.3     1  UNL1       -0.0340
     27 C           4.4412   -2.1495    0.0000 C.3     1  UNL1       -0.0415
     28 C           3.5099   -0.5220    0.0000 C.3     1  UNL1        0.0238
     29 C           3.5016   -1.6070    0.0000 C.3     1  UNL1       -0.0405
     30 C           5.3689   -2.5997    0.0000 C.3     1  UNL1        0.0527
     31 C          11.7705    1.5009    0.0000 C.3     1  UNL1       -0.0572
     32 C          11.2671    0.6368    0.0000 C.3     1  UNL1       -0.0572
     33 C           3.0200    0.3497    0.0000 C.3     1  UNL1       -0.0531
     34 C           2.5100   -0.5105    0.0000 C.2     1  UNL1        0.1262
     35 H           8.7661    0.5294    0.0000 H       1  UNL1        0.0315
     36 H          10.5612    0.5416    0.0000 H       1  UNL1        0.0312
     37 H           8.5160   -1.0558    0.0000 H       1  UNL1        0.0271
     38 H           9.3142   -1.0650    0.0000 H       1  UNL1        0.0271
     39 H          10.0358   -0.6558    0.0000 H       1  UNL1        0.0268
     40 H          10.4376    0.0339    0.0000 H       1  UNL1        0.0268
     41 H           5.4010    0.2917    0.0000 H       1  UNL1        0.0353
     42 H           7.3948   -2.1732    0.0000 H       1  UNL1        0.0299
     43 H           7.7859   -1.4773    0.0000 H       1  UNL1        0.0299
     44 H           7.5592    1.9236    0.0000 H       1  UNL1        0.0310
     45 H           6.7621    1.9236    0.0000 H       1  UNL1        0.0310
     46 H           8.6730    3.1467    0.0000 H       1  UNL1        0.0271
     47 H           8.2873    2.4478    0.0000 H       1  UNL1        0.0271
     48 H           6.8174   -2.4275    0.0000 H       1  UNL1        0.0600
     49 H           7.7862   -1.2031    0.0000 H       1  UNL1        0.0235
     50 H           8.5809   -1.5736    0.0000 H       1  UNL1        0.0235
     51 H           8.9514   -0.7789    0.0000 H       1  UNL1        0.0235
     52 H           5.7577    1.2587    0.0000 H       1  UNL1        0.0572
     53 H          10.7669    3.2097    0.0000 H       1  UNL1        0.0599
     54 H           8.3566    2.5159    0.0000 H       1  UNL1        0.0235
     55 H           7.5115    2.2825    0.0000 H       1  UNL1        0.0235
     56 H           7.7449    1.4373    0.0000 H       1  UNL1        0.0235
     57 H           7.3285   -1.7159    0.0000 H       1  UNL1        0.0238
     58 H           8.2020   -1.7923    0.0000 H       1  UNL1        0.0238
     59 H           8.2784   -0.9189    0.0000 H       1  UNL1        0.0238
     60 H          10.2203    3.6040    0.0000 H       1  UNL1        0.0290
     61 H           9.4221    3.5947    0.0000 H       1  UNL1        0.0290
     62 H           4.8660    0.4726    0.0000 H       1  UNL1        0.0280
     63 H           4.0679    0.4879    0.0000 H       1  UNL1        0.0280
     64 H           4.0439   -2.6255    0.0000 H       1  UNL1        0.0273
     65 H           4.8422   -2.6224    0.0000 H       1  UNL1        0.0273
     66 H           2.8915   -1.4962    0.0000 H       1  UNL1        0.0275
     67 H           3.2880   -2.1891    0.0000 H       1  UNL1        0.0275
     68 H           5.5764   -3.1840    0.0000 H       1  UNL1        0.0564
     69 H           5.9803   -2.4968    0.0000 H       1  UNL1        0.0564
     70 H          11.7681    0.8809    0.0000 H       1  UNL1        0.0236
     71 H          12.3905    1.4985    0.0000 H       1  UNL1        0.0236
     72 H          11.7729    2.1209    0.0000 H       1  UNL1        0.0236
     73 H          10.7290    0.3288    0.0000 H       1  UNL1        0.0236
     74 H          11.5751    0.0986    0.0000 H       1  UNL1        0.0236
     75 H          11.8053    0.9447    0.0000 H       1  UNL1        0.0236
     76 H           6.8207   -3.4285    0.0000 H       1  UNL1        0.2098
     77 H           3.5604    0.6535    0.0000 H       1  UNL1        0.0239
     78 H           2.7162    0.8902    0.0000 H       1  UNL1        0.0239
     79 H           2.4795    0.0459    0.0000 H       1  UNL1        0.0239
     80 H          11.6322    3.7130    0.0000 H       1  UNL1        0.2098
     81 H           2.2062    0.0300    0.0000 H       1  UNL1        0.1032
     82 H           4.4943   -3.7130    0.0000 H       1  UNL1        0.2094
@<TRIPOS>BOND
     1    19     1    1
     2     1    76    1
     3    22     2    1
     4     2    80    1
     5     3    30    1
     6     3    82    1
     7     4    34    2
     8     5     6    1
     9     5     8    1
    10     5    10    1
    11     5    20    1
    12     6     7    1
    13     6    17    1
    14     6    35    1
    15     7     9    1
    16     7    18    1
    17     7    23    1
    18     8    11    1
    19     8    16    1
    20     8    24    1
    21     9    12    1
    22     9    15    1
    23     9    36    1
    24    10    12    1
    25    10    37    1
    26    10    38    1
    27    11    13    1
    28    11    21    2
    29    12    39    1
    30    12    40    1
    31    13    14    1
    32    13    26    1
    33    13    41    1
    34    14    19    1
    35    14    27    1
    36    14    30    1
    37    15    22    1
    38    15    31    1
    39    15    32    1
    40    16    19    1
    41    16    42    1
    42    16    43    1
    43    17    21    1
    44    17    44    1
    45    17    45    1
    46    18    25    1
    47    18    46    1
    48    18    47    1
    49    19    48    1
    50    20    49    1
    51    20    50    1
    52    20    51    1
    53    21    52    1
    54    22    25    1
    55    22    53    1
    56    23    54    1
    57    23    55    1
    58    23    56    1
    59    24    57    1
    60    24    58    1
    61    24    59    1
    62    25    60    1
    63    25    61    1
    64    26    28    1
    65    26    62    1
    66    26    63    1
    67    27    29    1
    68    27    64    1
    69    27    65    1
    70    28    29    1
    71    28    33    1
    72    28    34    1
    73    29    66    1
    74    29    67    1
    75    30    68    1
    76    30    69    1
    77    31    70    1
    78    31    71    1
    79    31    72    1
    80    32    73    1
    81    32    74    1
    82    32    75    1
    83    33    77    1
    84    33    78    1
    85    33    79    1
    86    34    81    1
