@<TRIPOS>MOLECULE
IMPHY017138
 20 20 0 0 0
SMALL
GASTEIGER

@<TRIPOS>ATOM
      1 O           2.5369   -0.2500    0.0000 O.3     1  UNL1       -0.5065
      2 C           4.2690   -0.2500    0.0000 C.ar    1  UNL1       -0.0022
      3 C           4.2690    0.7500    0.0000 C.3     1  UNL1       -0.0063
      4 C           3.4030   -0.7500    0.0000 C.ar    1  UNL1        0.1203
      5 C           5.1350   -0.7500    0.0000 C.ar    1  UNL1       -0.0548
      6 C           3.4030   -1.7500    0.0000 C.ar    1  UNL1       -0.0199
      7 C           5.1350   -1.7500    0.0000 C.ar    1  UNL1       -0.0613
      8 C           4.2690   -2.2500    0.0000 C.ar    1  UNL1       -0.0583
      9 C           5.1350    1.2500    0.0000 C.2     1  UNL1       -0.0867
     10 C           5.1350    2.2500    0.0000 C.2     1  UNL1       -0.1023
     11 H           4.0569    1.3326    0.0000 H       1  UNL1        0.0357
     12 H           3.6584    0.6423    0.0000 H       1  UNL1        0.0357
     13 H           5.6720   -0.4400    0.0000 H       1  UNL1        0.0622
     14 H           2.8660   -2.0600    0.0000 H       1  UNL1        0.0654
     15 H           5.6720   -2.0600    0.0000 H       1  UNL1        0.0618
     16 H           4.2690   -2.8700    0.0000 H       1  UNL1        0.0619
     17 H           5.6720    0.9400    0.0000 H       1  UNL1        0.0570
     18 H           2.0000   -0.5600    0.0000 H       1  UNL1        0.2921
     19 H           5.6720    2.5600    0.0000 H       1  UNL1        0.0532
     20 H           4.5981    2.5600    0.0000 H       1  UNL1        0.0532
@<TRIPOS>BOND
     1     1     4    1
     2     1    18    1
     3     2     3    1
     4     2     4   ar
     5     2     5   ar
     6     3     9    1
     7     3    11    1
     8     3    12    1
     9     4     6   ar
    10     5     7   ar
    11     5    13    1
    12     6     8   ar
    13     6    14    1
    14     7     8   ar
    15     7    15    1
    16     8    16    1
    17     9    10    2
    18     9    17    1
    19    10    19    1
    20    10    20    1
