@<TRIPOS>MOLECULE
IMPHY006167
 66 72 0 0 0
SMALL
GASTEIGER

@<TRIPOS>ATOM
      1 O           5.3207   -3.5456    0.0000 O.3     1  UNL1       -0.3189
      2 O           3.5206   -3.5526    0.0000 O.3     1  UNL1       -0.3222
      3 O           6.1828    0.0307    0.0000 O.3     1  UNL1       -0.3877
      4 O           3.3137   -2.1697    0.0000 O.3     1  UNL1       -0.3232
      5 O           2.5286   -0.5088    0.0000 O.3     1  UNL1       -0.3915
      6 O           2.7065   -2.0041    0.0000 O.2     1  UNL1       -0.3002
      7 O           2.3441    3.3759    0.0000 O.2     1  UNL1       -0.4303
      8 O           2.0000    5.0734    0.0000 O.2     1  UNL1       -0.2452
      9 C           4.4386   -2.0041    0.0000 C.3     1  UNL1        0.0868
     10 C           4.4386   -1.0041    0.0000 C.3     1  UNL1        0.0076
     11 C           5.3046   -0.5041    0.0000 C.3     1  UNL1       -0.0053
     12 C           5.3207    0.5374    0.0000 C.3     1  UNL1        0.0753
     13 C           5.3046   -2.5041    0.0000 C.3     1  UNL1        0.0921
     14 C           4.4226    1.0651    0.0000 C.3     1  UNL1        0.0062
     15 C           3.5286   -0.4973    0.0000 C.3     1  UNL1        0.0601
     16 C           3.5286   -2.5110    0.0000 C.3     1  UNL1        0.0816
     17 C           6.1706   -1.0041    0.0000 C.3     1  UNL1       -0.0446
     18 C           6.1706   -2.0041    0.0000 C.3     1  UNL1       -0.0221
     19 C           3.5206    0.5443    0.0000 C.3     1  UNL1       -0.0180
     20 C           4.6483    2.0757    0.0000 C.3     1  UNL1       -0.0048
     21 C           5.6206   -1.0758    0.0000 C.3     1  UNL1        0.0041
     22 C           6.0937    1.2263    0.0000 C.3     1  UNL1       -0.0226
     23 C           4.4079   -0.2575    0.0000 C.3     1  UNL1        0.0692
     24 C           3.2016   -1.0851    0.0000 C.3     1  UNL1        0.0013
     25 C           5.6790    2.1751    0.0000 C.3     1  UNL1       -0.0429
     26 C           4.4226   -4.0734    0.0000 C.3     1  UNL1        0.2835
     27 C           3.5605    1.5718    0.0000 C.3     1  UNL1       -0.0563
     28 C           3.5726   -1.5041    0.0000 C.2     1  UNL1        0.1320
     29 C           3.9863    2.8251    0.0000 C.ar    1  UNL1       -0.0085
     30 C           4.4265   -5.0734    0.0000 C.3     1  UNL1        0.0176
     31 C           4.3042    3.7732    0.0000 C.ar    1  UNL1       -0.0486
     32 C           3.0062    2.6264    0.0000 C.ar    1  UNL1        0.0994
     33 C           3.6422    4.5226    0.0000 C.ar    1  UNL1        0.0233
     34 C           2.6621    4.3240    0.0000 C.ar    1  UNL1        0.3367
     35 H           5.1747   -1.4291    0.0000 H       1  UNL1        0.0340
     36 H           6.0440   -0.0848    0.0000 H       1  UNL1        0.0332
     37 H           3.3762   -1.0983    0.0000 H       1  UNL1        0.0596
     38 H           2.7876   -2.9274    0.0000 H       1  UNL1        0.0609
     39 H           6.7812   -1.1118    0.0000 H       1  UNL1        0.0270
     40 H           6.3827   -0.4215    0.0000 H       1  UNL1        0.0270
     41 H           6.3827   -2.5868    0.0000 H       1  UNL1        0.0293
     42 H           6.7812   -1.8965    0.0000 H       1  UNL1        0.0293
     43 H           3.3070    1.1264    0.0000 H       1  UNL1        0.0296
     44 H           2.9105    0.4335    0.0000 H       1  UNL1        0.0296
     45 H           4.8757    2.6525    0.0000 H       1  UNL1        0.0356
     46 H           6.2045   -1.2843    0.0000 H       1  UNL1        0.0318
     47 H           5.9004   -0.5225    0.0000 H       1  UNL1        0.0318
     48 H           6.4553    0.7226    0.0000 H       1  UNL1        0.0293
     49 H           6.6326    1.5329    0.0000 H       1  UNL1        0.0293
     50 H           4.8301    0.4803    0.0000 H       1  UNL1        0.0599
     51 H           2.9175   -0.5340    0.0000 H       1  UNL1        0.0316
     52 H           2.6193   -1.2981    0.0000 H       1  UNL1        0.0316
     53 H           6.2701    2.3623    0.0000 H       1  UNL1        0.0272
     54 H           5.5550    2.7826    0.0000 H       1  UNL1        0.0272
     55 H           3.8746    2.1063    0.0000 H       1  UNL1        0.0236
     56 H           3.0260    1.8859    0.0000 H       1  UNL1        0.0236
     57 H           3.2464    1.0372    0.0000 H       1  UNL1        0.0236
     58 H           3.8826   -0.9672    0.0000 H       1  UNL1        0.1034
     59 H           6.7221    0.3366    0.0000 H       1  UNL1        0.2102
     60 H           2.2125    0.0245    0.0000 H       1  UNL1        0.2098
     61 H           3.8065   -5.0758    0.0000 H       1  UNL1        0.0307
     62 H           4.4289   -5.6934    0.0000 H       1  UNL1        0.0307
     63 H           5.0465   -5.0710    0.0000 H       1  UNL1        0.0307
     64 H           4.9119    3.8964    0.0000 H       1  UNL1        0.0623
     65 H           2.8090    2.0386    0.0000 H       1  UNL1        0.1033
     66 H           3.8393    5.1105    0.0000 H       1  UNL1        0.0689
@<TRIPOS>BOND
     1     1    13    1
     2     1    26    1
     3     2    16    1
     4     2    26    1
     5    12     3    1
     6     3    59    1
     7     4    23    1
     8     4    26    1
     9    15     5    1
    10     5    60    1
    11     6    28    2
    12     7    32   ar
    13     7    34   ar
    14     8    34    2
    15     9    10    1
    16     9    13    1
    17     9    16    1
    18     9    28    1
    19    10    11    1
    20    10    15    1
    21    10    35    1
    22    11    12    1
    23    11    17    1
    24    11    36    1
    25    12    14    1
    26    12    22    1
    27    13    18    1
    28    13    21    1
    29    14    19    1
    30    14    20    1
    31    14    27    1
    32    15    19    1
    33    15    37    1
    34    16    24    1
    35    16    38    1
    36    17    18    1
    37    17    39    1
    38    17    40    1
    39    18    41    1
    40    18    42    1
    41    19    43    1
    42    19    44    1
    43    20    25    1
    44    20    29    1
    45    20    45    1
    46    21    23    1
    47    21    46    1
    48    21    47    1
    49    22    25    1
    50    22    48    1
    51    22    49    1
    52    23    24    1
    53    23    50    1
    54    24    51    1
    55    24    52    1
    56    25    53    1
    57    25    54    1
    58    26    30    1
    59    27    55    1
    60    27    56    1
    61    27    57    1
    62    28    58    1
    63    29    31   ar
    64    29    32   ar
    65    30    61    1
    66    30    62    1
    67    30    63    1
    68    31    33   ar
    69    31    64    1
    70    32    65    1
    71    33    34   ar
    72    33    66    1
