@<TRIPOS>MOLECULE
IMPHY016133
 44 46 0 0 0
SMALL
GASTEIGER

@<TRIPOS>ATOM
      1 C           3.1350    2.6200    0.0000 C.ar    1  UNL1       -0.0108
      2 C           3.1350    3.6200    0.0000 C.ar    1  UNL1       -0.0173
      3 C           4.0010    7.9613    0.0000 C.ar    2  UNL2       -0.0173
      4 C           4.0010    8.9613    0.0000 C.ar    2  UNL2       -0.0178
      5 C           2.2690    2.1200    0.0000 C.ar    1  UNL1       -0.0179
      6 C           3.1350    7.4613    0.0000 C.ar    2  UNL2       -0.0469
      7 C           4.0290    2.0853    0.0000 C.ar    1  UNL1       -0.0535
      8 C           2.2690    4.1200    0.0000 C.ar    1  UNL1       -0.0540
      9 C           2.2690    7.9613    0.0000 C.ar    2  UNL2       -0.0250
     10 C           3.1350    9.4613    0.0000 C.ar    2  UNL2       -0.0535
     11 C           4.0290    4.1547    0.0000 C.ar    1  UNL1       -0.0540
     12 C           1.4030    2.6200    0.0000 C.ar    1  UNL1       -0.0540
     13 C           4.8950    7.4266    0.0000 C.ar    2  UNL2       -0.0540
     14 C           4.8950    9.4959    0.0000 C.ar    2  UNL2       -0.0540
     15 C           2.2690    8.9613    0.0000 C.ar    2  UNL2       -0.0540
     16 C           1.4030    3.6200    0.0000 C.ar    1  UNL1       -0.0606
     17 C           4.9350    2.5992    0.0000 C.ar    1  UNL1       -0.0611
     18 C           4.9350    3.6408    0.0000 C.ar    1  UNL1       -0.0612
     19 C           5.8010    7.9404    0.0000 C.ar    2  UNL2       -0.0612
     20 C           5.8010    8.9821    0.0000 C.ar    2  UNL2       -0.0612
     21 C           2.2690    1.1200    0.0000 C.2     1  UNL1       -0.0611
     22 C           1.4030    7.4613    0.0000 C.2     2  UNL2       -0.0617
     23 C           1.4030    0.6200    0.0000 C.2     1  UNL1       -0.0981
     24 C           0.5369    7.9613    0.0000 C.2     2  UNL2       -0.0981
     25 H           3.1350    6.8413    0.0000 H       2  UNL2        0.0629
     26 H           4.0218    1.4654    0.0000 H       1  UNL1        0.0624
     27 H           2.2690    4.7400    0.0000 H       1  UNL1        0.0624
     28 H           3.1350   10.0813    0.0000 H       2  UNL2        0.0624
     29 H           4.0218    4.7746    0.0000 H       1  UNL1        0.0624
     30 H           0.8660    2.3100    0.0000 H       1  UNL1        0.0624
     31 H           4.8878    6.8066    0.0000 H       2  UNL2        0.0624
     32 H           4.8878   10.1159    0.0000 H       2  UNL2        0.0624
     33 H           1.7320    9.2713    0.0000 H       2  UNL2        0.0624
     34 H           0.8660    3.9300    0.0000 H       1  UNL1        0.0618
     35 H           5.4708    2.2871    0.0000 H       1  UNL1        0.0618
     36 H           5.4708    3.9529    0.0000 H       1  UNL1        0.0618
     37 H           6.3368    7.6284    0.0000 H       2  UNL2        0.0618
     38 H           6.3368    9.2942    0.0000 H       2  UNL2        0.0618
     39 H           2.8059    0.8100    0.0000 H       1  UNL1        0.0618
     40 H           1.4030    6.8413    0.0000 H       2  UNL2        0.0618
     41 H           0.8660    0.9300    0.0000 H       1  UNL1        0.0535
     42 H           1.4030    0.0000    0.0000 H       1  UNL1        0.0535
     43 H           0.5369    8.5813    0.0000 H       2  UNL2        0.0535
     44 H           0.0000    7.6513    0.0000 H       2  UNL2        0.0535
@<TRIPOS>BOND
     1     1     2   ar
     2     1     5   ar
     3     1     7   ar
     4     2     8   ar
     5     2    11   ar
     6     3     4   ar
     7     3     6   ar
     8     3    13   ar
     9     4    10   ar
    10     4    14   ar
    11     5    12   ar
    12     5    21    1
    13     6     9   ar
    14     6    25    1
    15     7    17   ar
    16     7    26    1
    17     8    16   ar
    18     8    27    1
    19     9    15   ar
    20     9    22    1
    21    10    15   ar
    22    10    28    1
    23    11    18   ar
    24    11    29    1
    25    12    16   ar
    26    12    30    1
    27    13    19   ar
    28    13    31    1
    29    14    20   ar
    30    14    32    1
    31    15    33    1
    32    16    34    1
    33    17    18   ar
    34    17    35    1
    35    18    36    1
    36    19    20   ar
    37    19    37    1
    38    20    38    1
    39    21    23    2
    40    21    39    1
    41    22    24    2
    42    22    40    1
    43    23    41    1
    44    23    42    1
    45    24    43    1
    46    24    44    1
