@<TRIPOS>MOLECULE
IMPHY012149
 31 31 0 0 0
SMALL
GASTEIGER

@<TRIPOS>ATOM
      1 O           4.5981   -1.3450    0.0000 O.3     1  UNL1       -0.3918
      2 C           4.5981   -0.3450    0.0000 C.3     1  UNL1        0.0553
      3 C           3.7320    0.1550    0.0000 C.3     1  UNL1       -0.0269
      4 C           5.4641    0.1550    0.0000 C.3     1  UNL1       -0.0269
      5 C           2.8660   -0.3450    0.0000 C.3     1  UNL1       -0.0507
      6 C           5.4641    1.1550    0.0000 C.3     1  UNL1       -0.0507
      7 C           2.0000    0.1550    0.0000 C.3     1  UNL1       -0.0530
      8 C           4.5981    1.6550    0.0000 C.3     1  UNL1       -0.0530
      9 C           2.0000    1.1550    0.0000 C.3     1  UNL1       -0.0531
     10 C           3.7320    1.1550    0.0000 C.3     1  UNL1       -0.0531
     11 C           2.8660    1.6550    0.0000 C.3     1  UNL1       -0.0531
     12 H           5.1350   -0.6550    0.0000 H       1  UNL1        0.0593
     13 H           4.1306    0.6299    0.0000 H       1  UNL1        0.0290
     14 H           3.3335    0.6299    0.0000 H       1  UNL1        0.0290
     15 H           5.6762   -0.4276    0.0000 H       1  UNL1        0.0290
     16 H           6.0747    0.2627    0.0000 H       1  UNL1        0.0290
     17 H           2.4675   -0.8199    0.0000 H       1  UNL1        0.0266
     18 H           3.2646   -0.8199    0.0000 H       1  UNL1        0.0266
     19 H           6.0747    1.0473    0.0000 H       1  UNL1        0.0266
     20 H           5.6762    1.7376    0.0000 H       1  UNL1        0.0266
     21 H           1.3894    0.2627    0.0000 H       1  UNL1        0.0265
     22 H           1.7880   -0.4276    0.0000 H       1  UNL1        0.0265
     23 H           4.9966    2.1300    0.0000 H       1  UNL1        0.0265
     24 H           4.1996    2.1300    0.0000 H       1  UNL1        0.0265
     25 H           1.7880    1.7376    0.0000 H       1  UNL1        0.0265
     26 H           1.3894    1.0473    0.0000 H       1  UNL1        0.0265
     27 H           3.3335    0.6801    0.0000 H       1  UNL1        0.0265
     28 H           4.1306    0.6801    0.0000 H       1  UNL1        0.0265
     29 H           3.2646    2.1300    0.0000 H       1  UNL1        0.0265
     30 H           2.4675    2.1300    0.0000 H       1  UNL1        0.0265
     31 H           5.1350   -1.6550    0.0000 H       1  UNL1        0.2098
@<TRIPOS>BOND
     1     1     2    1
     2     1    31    1
     3     2     3    1
     4     2     4    1
     5     2    12    1
     6     3     5    1
     7     3    13    1
     8     3    14    1
     9     4     6    1
    10     4    15    1
    11     4    16    1
    12     5     7    1
    13     5    17    1
    14     5    18    1
    15     6     8    1
    16     6    19    1
    17     6    20    1
    18     7     9    1
    19     7    21    1
    20     7    22    1
    21     8    10    1
    22     8    23    1
    23     8    24    1
    24     9    11    1
    25     9    25    1
    26     9    26    1
    27    10    11    1
    28    10    27    1
    29    10    28    1
    30    11    29    1
    31    11    30    1
