@<TRIPOS>MOLECULE
IMPHY003247
 34 37 0 0 0
SMALL
GASTEIGER

@<TRIPOS>ATOM
      1 O           2.5836    0.5720    0.0000 O.3     1  UNL1       -0.4489
      2 O           2.5836   -1.0374    0.0000 O.3     1  UNL1       -0.4524
      3 O           4.3958    1.7673    0.0000 O.3     1  UNL1       -0.4906
      4 O           6.1443    1.8019    0.0000 O.2     1  UNL1       -0.2864
      5 N           6.1558   -1.2674    0.0000 N.ar    1  UNL1       -0.3425
      6 C           5.2619   -0.7327    0.0000 C.ar    1  UNL1        0.0602
      7 C           5.2619    0.2673    0.0000 C.ar    1  UNL1        0.0912
      8 C           7.0619   -0.7535    0.0000 C.ar    1  UNL1        0.0529
      9 C           7.0619    0.2881    0.0000 C.ar    1  UNL1        0.0459
     10 C           4.3958    0.7673    0.0000 C.ar    1  UNL1        0.1781
     11 C           6.1558    0.8020    0.0000 C.ar    1  UNL1        0.2007
     12 C           4.3958   -1.2327    0.0000 C.ar    1  UNL1        0.0083
     13 C           3.5298    0.2673    0.0000 C.ar    1  UNL1        0.2084
     14 C           3.5298   -0.7327    0.0000 C.ar    1  UNL1        0.1719
     15 C           6.1443   -2.2673    0.0000 C.3     1  UNL1        0.0124
     16 C           7.9930   -1.3104    0.0000 C.ar    1  UNL1       -0.0375
     17 C           7.9930    0.8450    0.0000 C.ar    1  UNL1       -0.0489
     18 C           2.0000   -0.2327    0.0000 C.3     1  UNL1        0.2334
     19 C           8.9368   -0.7752    0.0000 C.ar    1  UNL1       -0.0598
     20 C           8.9368    0.3098    0.0000 C.ar    1  UNL1       -0.0610
     21 C           3.5298    2.2673    0.0000 C.3     1  UNL1        0.0790
     22 H           4.3958   -1.8527    0.0000 H       1  UNL1        0.0676
     23 H           5.5243   -2.2601    0.0000 H       1  UNL1        0.0456
     24 H           6.1371   -2.8873    0.0000 H       1  UNL1        0.0456
     25 H           6.7642   -2.2745    0.0000 H       1  UNL1        0.0456
     26 H           7.9859   -1.9304    0.0000 H       1  UNL1        0.0638
     27 H           7.9859    1.4650    0.0000 H       1  UNL1        0.0625
     28 H           1.5391    0.1820    0.0000 H       1  UNL1        0.1166
     29 H           1.5391   -0.6474    0.0000 H       1  UNL1        0.1166
     30 H           9.4726   -1.0873    0.0000 H       1  UNL1        0.0618
     31 H           9.4726    0.6219    0.0000 H       1  UNL1        0.0618
     32 H           3.8398    2.8042    0.0000 H       1  UNL1        0.0660
     33 H           2.9929    2.5773    0.0000 H       1  UNL1        0.0660
     34 H           3.2198    1.7304    0.0000 H       1  UNL1        0.0660
@<TRIPOS>BOND
     1     1    13    1
     2     1    18    1
     3     2    14    1
     4     2    18    1
     5     3    10    1
     6     3    21    1
     7     4    11    2
     8     5     6   ar
     9     5     8   ar
    10     5    15    1
    11     6     7   ar
    12     6    12   ar
    13     7    10   ar
    14     7    11   ar
    15     8     9   ar
    16     8    16   ar
    17     9    11   ar
    18     9    17   ar
    19    10    13   ar
    20    12    14   ar
    21    12    22    1
    22    13    14   ar
    23    15    23    1
    24    15    24    1
    25    15    25    1
    26    16    19   ar
    27    16    26    1
    28    17    20   ar
    29    17    27    1
    30    18    28    1
    31    18    29    1
    32    19    20   ar
    33    19    30    1
    34    20    31    1
    35    21    32    1
    36    21    33    1
    37    21    34    1
