@<TRIPOS>MOLECULE
IMPHY013071
 106 111 0 0 0
SMALL
GASTEIGER

@<TRIPOS>ATOM
      1 O           8.5991    0.2680    0.0000 O.3     1  UNL1       -0.3290
      2 O          14.6720   -0.2476    0.0000 O.3     1  UNL1       -0.3302
      3 O           6.8671   -1.7320    0.0000 O.3     1  UNL1       -0.4555
      4 O          10.3312    0.2680    0.0000 O.3     1  UNL1       -0.4598
      5 O           8.5991   -2.7320    0.0000 O.3     1  UNL1       -0.3852
      6 O          10.3312   -1.7320    0.0000 O.3     1  UNL1       -0.3829
      7 O          13.8233    1.2623    0.0000 O.3     1  UNL1       -0.4515
      8 O          13.7771   -2.7374    0.0000 O.3     1  UNL1       -0.3864
      9 O          12.0567   -1.7175    0.0000 O.3     1  UNL1       -0.3864
     10 O          12.0799    0.2824    0.0000 O.3     1  UNL1       -0.3829
     11 O           6.0010   -0.2320    0.0000 O.3     1  UNL1       -0.4615
     12 O          16.3923   -1.2676    0.0000 O.3     1  UNL1       -0.4589
     13 O          12.1145    3.2822    0.0000 O.2     1  UNL1       -0.1997
     14 O           7.7331   -3.2320    0.0000 O.2     1  UNL1       -0.2502
     15 O           8.5849    3.3472    0.0000 O.3     1  UNL1       -0.5063
     16 O           5.1350    1.2680    0.0000 O.2     1  UNL1       -0.2502
     17 O          17.2410   -2.7775    0.0000 O.2     1  UNL1       -0.2456
     18 O           5.1350   -4.7320    0.0000 O.3     1  UNL1       -0.4802
     19 O           6.8671   -4.7320    0.0000 O.2     1  UNL1       -0.2504
     20 O           2.5369   -0.2320    0.0000 O.3     1  UNL1       -0.4802
     21 O          16.4617    4.7320    0.0000 O.3     1  UNL1       -0.5068
     22 O           3.4030    1.2680    0.0000 O.2     1  UNL1       -0.2504
     23 O          22.4715    0.1622    0.0000 O.3     1  UNL1       -0.5068
     24 C           7.7331   -1.2320    0.0000 C.3     1  UNL1        0.1606
     25 C           8.5991   -1.7320    0.0000 C.3     1  UNL1        0.1262
     26 C           7.7331   -0.2320    0.0000 C.3     1  UNL1        0.1360
     27 C           9.4651   -1.2320    0.0000 C.3     1  UNL1        0.1465
     28 C           9.4651   -0.2320    0.0000 C.3     1  UNL1        0.2309
     29 C          13.7887   -1.7375    0.0000 C.3     1  UNL1        0.1130
     30 C          12.9285   -1.2275    0.0000 C.3     1  UNL1        0.1152
     31 C          14.6604   -1.2476    0.0000 C.3     1  UNL1        0.1250
     32 C          12.9400   -0.2276    0.0000 C.3     1  UNL1        0.1454
     33 C          13.8118    0.2624    0.0000 C.3     1  UNL1        0.2313
     34 C           6.8671    0.2680    0.0000 C.3     1  UNL1        0.1223
     35 C          15.5206   -1.7575    0.0000 C.3     1  UNL1        0.1215
     36 C          10.3312    1.2680    0.0000 C.ar    1  UNL1        0.1437
     37 C          12.9632    1.7723    0.0000 C.ar    1  UNL1        0.2288
     38 C          11.2312    1.7923    0.0000 C.ar    1  UNL1        0.1245
     39 C           6.8671   -2.7320    0.0000 C.2     1  UNL1        0.3183
     40 C          12.0914    1.2823    0.0000 C.ar    1  UNL1        0.0093
     41 C          11.2428    2.7922    0.0000 C.ar    1  UNL1        0.3708
     42 C          12.9747    2.7722    0.0000 C.ar    1  UNL1        0.4045
     43 C           9.4311    1.7923    0.0000 C.ar    1  UNL1        0.0229
     44 C           6.0010   -3.2320    0.0000 C.3     1  UNL1        0.1418
     45 C          10.3551    3.3372    0.0000 C.ar    1  UNL1        0.0847
     46 C           9.4431    2.8339    0.0000 C.ar    1  UNL1        0.1293
     47 C           5.1350    0.2680    0.0000 C.2     1  UNL1        0.3180
     48 C          13.8465    3.2622    0.0000 C.ar    1  UNL1        0.0830
     49 C          17.2525   -1.7776    0.0000 C.2     1  UNL1        0.3320
     50 C           4.2690   -0.2320    0.0000 C.3     1  UNL1        0.1418
     51 C           6.0010   -4.2320    0.0000 C.2     1  UNL1        0.3155
     52 C          13.8580    4.2621    0.0000 C.ar    1  UNL1       -0.0420
     53 C          14.7067    2.7522    0.0000 C.ar    1  UNL1       -0.0420
     54 C          18.1243   -1.2876    0.0000 C.2     1  UNL1        0.0231
     55 C          14.7298    4.7520    0.0000 C.ar    1  UNL1       -0.0193
     56 C          15.5784    3.2421    0.0000 C.ar    1  UNL1       -0.0193
     57 C           3.4030    0.2680    0.0000 C.2     1  UNL1        0.3155
     58 C          15.5900    4.2421    0.0000 C.ar    1  UNL1        0.1169
     59 C          18.9845   -1.7976    0.0000 C.2     1  UNL1       -0.0478
     60 C          19.8562   -1.3076    0.0000 C.ar    1  UNL1       -0.0246
     61 C          19.8678   -0.3077    0.0000 C.ar    1  UNL1       -0.0511
     62 C          20.7164   -1.8176    0.0000 C.ar    1  UNL1       -0.0511
     63 C          20.7395    0.1823    0.0000 C.ar    1  UNL1       -0.0196
     64 C          21.5882   -1.3277    0.0000 C.ar    1  UNL1       -0.0196
     65 C          21.5997   -0.3277    0.0000 C.ar    1  UNL1        0.1169
     66 H           7.0817   -0.8559    0.0000 H       1  UNL1        0.0789
     67 H           9.2505   -2.1081    0.0000 H       1  UNL1        0.0659
     68 H           8.3845   -0.6081    0.0000 H       1  UNL1        0.0670
     69 H           9.4652   -1.9842    0.0000 H       1  UNL1        0.0683
     70 H           9.4652    0.5202    0.0000 H       1  UNL1        0.1084
     71 H          14.4357   -2.1212    0.0000 H       1  UNL1        0.0647
     72 H          13.5843   -0.8590    0.0000 H       1  UNL1        0.0648
     73 H          14.6517   -1.9998    0.0000 H       1  UNL1        0.0658
     74 H          12.2843   -0.5962    0.0000 H       1  UNL1        0.0683
     75 H          14.4676    0.6309    0.0000 H       1  UNL1        0.1084
     76 H           6.4910    0.9195    0.0000 H       1  UNL1        0.0725
     77 H           7.2433    0.9194    0.0000 H       1  UNL1        0.0725
     78 H          15.8892   -2.4132    0.0000 H       1  UNL1        0.0725
     79 H          15.1370   -2.4046    0.0000 H       1  UNL1        0.0725
     80 H           8.5991   -3.4842    0.0000 H       1  UNL1        0.2101
     81 H          10.9827   -2.1081    0.0000 H       1  UNL1        0.2102
     82 H          13.7684   -3.4896    0.0000 H       1  UNL1        0.2100
     83 H          11.4009   -2.0861    0.0000 H       1  UNL1        0.2100
     84 H          11.4329    0.6661    0.0000 H       1  UNL1        0.2102
     85 H          12.0827    0.5301    0.0000 H       1  UNL1        0.0667
     86 H           8.7768    1.4212    0.0000 H       1  UNL1        0.0691
     87 H           5.2488   -3.2320    0.0000 H       1  UNL1        0.0493
     88 H           5.6249   -2.5806    0.0000 H       1  UNL1        0.0493
     89 H          10.3725    4.0892    0.0000 H       1  UNL1        0.0749
     90 H           4.6451   -0.8835    0.0000 H       1  UNL1        0.0493
     91 H           3.8929   -0.8835    0.0000 H       1  UNL1        0.0493
     92 H          13.2109    4.6457    0.0000 H       1  UNL1        0.0628
     93 H          14.6980    2.0000    0.0000 H       1  UNL1        0.0628
     94 H           7.9393    3.7333    0.0000 H       1  UNL1        0.2921
     95 H          18.1330   -0.5354    0.0000 H       1  UNL1        0.0689
     96 H          14.7385    5.5042    0.0000 H       1  UNL1        0.0654
     97 H          16.2254    2.8584    0.0000 H       1  UNL1        0.0654
     98 H          18.9759   -2.5498    0.0000 H       1  UNL1        0.0626
     99 H           4.4836   -5.1081    0.0000 H       1  UNL1        0.2951
    100 H           1.8854   -0.6081    0.0000 H       1  UNL1        0.2951
    101 H          17.1175    5.1005    0.0000 H       1  UNL1        0.2921
    102 H          19.2207    0.0759    0.0000 H       1  UNL1        0.0625
    103 H          20.7077   -2.5698    0.0000 H       1  UNL1        0.0625
    104 H          20.7481    0.9345    0.0000 H       1  UNL1        0.0654
    105 H          22.2352   -1.7114    0.0000 H       1  UNL1        0.0654
    106 H          23.1273    0.5307    0.0000 H       1  UNL1        0.2921
@<TRIPOS>UNITY_ATOM_ATTR
13 1
charge 1
@<TRIPOS>BOND
     1     1    26    1
     2     1    28    1
     3     2    31    1
     4     2    33    1
     5     3    24    1
     6     3    39    1
     7     4    28    1
     8     4    36    1
     9     5    25    1
    10     5    80    1
    11     6    27    1
    12     6    81    1
    13     7    33    1
    14     7    37    1
    15     8    29    1
    16     8    82    1
    17     9    30    1
    18     9    83    1
    19    10    32    1
    20    10    84    1
    21    11    34    1
    22    11    47    1
    23    12    35    1
    24    12    49    1
    25    13    41   ar
    26    13    42   ar
    27    14    39    2
    28    15    46    1
    29    15    94    1
    30    16    47    2
    31    17    49    2
    32    18    51    1
    33    18    99    1
    34    19    51    2
    35    20    57    1
    36    20   100    1
    37    21    58    1
    38    21   101    1
    39    22    57    2
    40    23    65    1
    41    23   106    1
    42    24    25    1
    43    24    26    1
    44    24    66    1
    45    25    27    1
    46    25    67    1
    47    26    34    1
    48    26    68    1
    49    27    28    1
    50    27    69    1
    51    28    70    1
    52    29    30    1
    53    29    31    1
    54    29    71    1
    55    30    32    1
    56    30    72    1
    57    31    35    1
    58    31    73    1
    59    32    33    1
    60    32    74    1
    61    33    75    1
    62    34    76    1
    63    34    77    1
    64    35    78    1
    65    35    79    1
    66    36    38   ar
    67    36    43   ar
    68    37    40   ar
    69    37    42   ar
    70    38    40   ar
    71    38    41   ar
    72    39    44    1
    73    40    85    1
    74    41    45   ar
    75    42    48    1
    76    43    46   ar
    77    43    86    1
    78    44    51    1
    79    44    87    1
    80    44    88    1
    81    45    46   ar
    82    45    89    1
    83    47    50    1
    84    48    52   ar
    85    48    53   ar
    86    49    54    1
    87    50    57    1
    88    50    90    1
    89    50    91    1
    90    52    55   ar
    91    52    92    1
    92    53    56   ar
    93    53    93    1
    94    54    59    2
    95    54    95    1
    96    55    58   ar
    97    55    96    1
    98    56    58   ar
    99    56    97    1
   100    59    60    1
   101    59    98    1
   102    60    61   ar
   103    60    62   ar
   104    61    63   ar
   105    61   102    1
   106    62    64   ar
   107    62   103    1
   108    63    65   ar
   109    63   104    1
   110    64    65   ar
   111    64   105    1
