@<TRIPOS>MOLECULE
IMPHY005896
 31 31 0 0 0
SMALL
GASTEIGER

@<TRIPOS>ATOM
      1 S           5.4641   -0.0600    0.0000 S.3     1  UNL1       -0.1278
      2 S           3.7320   -0.0600    0.0000 S.3     1  UNL1       -0.1278
      3 N           4.5981    1.4400    0.0000 N.3     1  UNL1       -0.2931
      4 C           3.7320    0.9400    0.0000 C.3     1  UNL1        0.0559
      5 C           5.4641    0.9400    0.0000 C.3     1  UNL1        0.0559
      6 C           4.5981   -0.5600    0.0000 C.3     1  UNL1        0.0536
      7 C           2.8660    1.4400    0.0000 C.3     1  UNL1       -0.0310
      8 C           6.3301    1.4400    0.0000 C.3     1  UNL1       -0.0310
      9 C           4.5981   -1.5600    0.0000 C.3     1  UNL1       -0.0347
     10 C           7.1962    0.9400    0.0000 C.3     1  UNL1       -0.0631
     11 C           2.0000    0.9400    0.0000 C.3     1  UNL1       -0.0631
     12 C           3.7320   -2.0600    0.0000 C.3     1  UNL1       -0.0635
     13 H           3.1951    0.6300    0.0000 H       1  UNL1        0.0576
     14 H           6.0010    0.6300    0.0000 H       1  UNL1        0.0576
     15 H           5.1350   -0.8700    0.0000 H       1  UNL1        0.0526
     16 H           4.5981    2.0600    0.0000 H       1  UNL1        0.1240
     17 H           6.7287    1.9150    0.0000 H       1  UNL1        0.0286
     18 H           5.9316    1.9150    0.0000 H       1  UNL1        0.0286
     19 H           3.2646    1.9150    0.0000 H       1  UNL1        0.0286
     20 H           2.4675    1.9150    0.0000 H       1  UNL1        0.0286
     21 H           4.8101   -2.1426    0.0000 H       1  UNL1        0.0281
     22 H           5.2087   -1.4523    0.0000 H       1  UNL1        0.0281
     23 H           6.8862    0.4031    0.0000 H       1  UNL1        0.0231
     24 H           7.7331    0.6300    0.0000 H       1  UNL1        0.0231
     25 H           7.5062    1.4769    0.0000 H       1  UNL1        0.0231
     26 H           1.6900    1.4769    0.0000 H       1  UNL1        0.0231
     27 H           1.4631    0.6300    0.0000 H       1  UNL1        0.0231
     28 H           2.3100    0.4031    0.0000 H       1  UNL1        0.0231
     29 H           3.4220   -1.5231    0.0000 H       1  UNL1        0.0230
     30 H           3.1951   -2.3700    0.0000 H       1  UNL1        0.0230
     31 H           4.0420   -2.5969    0.0000 H       1  UNL1        0.0230
@<TRIPOS>BOND
     1     1     5    1
     2     1     6    1
     3     2     4    1
     4     2     6    1
     5     3     4    1
     6     3     5    1
     7     3    16    1
     8     4     7    1
     9     4    13    1
    10     5     8    1
    11     5    14    1
    12     6     9    1
    13     6    15    1
    14     7    11    1
    15     7    19    1
    16     7    20    1
    17     8    10    1
    18     8    17    1
    19     8    18    1
    20     9    12    1
    21     9    21    1
    22     9    22    1
    23    10    23    1
    24    10    24    1
    25    10    25    1
    26    11    26    1
    27    11    27    1
    28    11    28    1
    29    12    29    1
    30    12    30    1
    31    12    31    1
