@<TRIPOS>MOLECULE
IMPHY014272
 53 54 0 0 0
SMALL
GASTEIGER

@<TRIPOS>ATOM
      1 O           7.2622   -1.3251    0.0000 O.2     1  UNL1       -0.2927
      2 O           3.7320    3.8469    0.0000 O.3     1  UNL1       -0.4775
      3 O           2.2320    2.9809    0.0000 O.2     1  UNL1       -0.2458
      4 C           3.7320   -1.3492    0.0000 C.3     1  UNL1       -0.0252
      5 C           4.5981   -1.8492    0.0000 C.3     1  UNL1       -0.0193
      6 C           4.5981   -2.8492    0.0000 C.3     1  UNL1       -0.0072
      7 C           2.8660   -1.8492    0.0000 C.3     1  UNL1       -0.0381
      8 C           3.7320   -3.3492    0.0000 C.3     1  UNL1       -0.0434
      9 C           2.8660   -2.8492    0.0000 C.3     1  UNL1       -0.0492
     10 C           3.2320   -0.4832    0.0000 C.3     1  UNL1       -0.0434
     11 C           5.4920   -1.3146    0.0000 C.3     1  UNL1        0.0140
     12 C           5.4920   -3.3839    0.0000 C.2     1  UNL1       -0.0631
     13 C           4.2320   -0.4832    0.0000 C.3     1  UNL1       -0.0590
     14 C           4.5981   -3.8492    0.0000 C.3     1  UNL1       -0.0556
     15 C           2.0000   -1.3492    0.0000 C.3     1  UNL1       -0.0619
     16 C           6.3981   -1.8284    0.0000 C.2     1  UNL1        0.1564
     17 C           3.7320    0.3828    0.0000 C.3     1  UNL1       -0.0310
     18 C           6.3981   -2.8701    0.0000 C.2     1  UNL1       -0.0197
     19 C           5.4804   -4.3838    0.0000 C.3     1  UNL1       -0.0429
     20 C           3.2320    1.2488    0.0000 C.2     1  UNL1       -0.0659
     21 C           2.2320    1.2488    0.0000 C.3     1  UNL1       -0.0433
     22 C           3.7320    2.1148    0.0000 C.2     1  UNL1        0.0213
     23 C           3.2320    2.9809    0.0000 C.2     1  UNL1        0.3295
     24 H           4.5915   -0.9993    0.0000 H       1  UNL1        0.0319
     25 H           2.8660   -1.2292    0.0000 H       1  UNL1        0.0303
     26 H           3.3335   -3.8242    0.0000 H       1  UNL1        0.0274
     27 H           4.1306   -3.8242    0.0000 H       1  UNL1        0.0274
     28 H           2.2554   -2.7416    0.0000 H       1  UNL1        0.0268
     29 H           2.6540   -3.4319    0.0000 H       1  UNL1        0.0268
     30 H           2.7571   -0.0847    0.0000 H       1  UNL1        0.0274
     31 H           2.7571   -0.8818    0.0000 H       1  UNL1        0.0274
     32 H           5.8856   -0.8356    0.0000 H       1  UNL1        0.0348
     33 H           5.0874   -0.8448    0.0000 H       1  UNL1        0.0348
     34 H           4.7690   -0.7932    0.0000 H       1  UNL1        0.0235
     35 H           4.5420    0.0537    0.0000 H       1  UNL1        0.0235
     36 H           3.6951   -0.1732    0.0000 H       1  UNL1        0.0235
     37 H           3.9781   -3.8492    0.0000 H       1  UNL1        0.0238
     38 H           4.5981   -4.4692    0.0000 H       1  UNL1        0.0238
     39 H           5.2181   -3.8492    0.0000 H       1  UNL1        0.0238
     40 H           2.3100   -0.8123    0.0000 H       1  UNL1        0.0233
     41 H           1.4631   -1.0392    0.0000 H       1  UNL1        0.0233
     42 H           1.6900   -1.8862    0.0000 H       1  UNL1        0.0233
     43 H           4.2070   -0.0157    0.0000 H       1  UNL1        0.0310
     44 H           4.2070    0.7813    0.0000 H       1  UNL1        0.0310
     45 H           6.9338   -3.1821    0.0000 H       1  UNL1        0.0652
     46 H           4.8605   -4.3767    0.0000 H       1  UNL1        0.0275
     47 H           5.4733   -5.0038    0.0000 H       1  UNL1        0.0275
     48 H           6.1004   -4.3910    0.0000 H       1  UNL1        0.0275
     49 H           2.2320    1.8688    0.0000 H       1  UNL1        0.0274
     50 H           1.6120    1.2488    0.0000 H       1  UNL1        0.0274
     51 H           2.2320    0.6288    0.0000 H       1  UNL1        0.0274
     52 H           4.3520    2.1148    0.0000 H       1  UNL1        0.0688
     53 H           3.4220    4.3838    0.0000 H       1  UNL1        0.2954
@<TRIPOS>BOND
     1     1    16    2
     2     2    23    1
     3     2    53    1
     4     3    23    2
     5     4     5    1
     6     4     7    1
     7     4    10    1
     8     4    13    1
     9     5     6    1
    10     5    11    1
    11     5    24    1
    12     6     8    1
    13     6    12    1
    14     6    14    1
    15     7     9    1
    16     7    15    1
    17     7    25    1
    18     8     9    1
    19     8    26    1
    20     8    27    1
    21     9    28    1
    22     9    29    1
    23    10    17    1
    24    10    30    1
    25    10    31    1
    26    11    16    1
    27    11    32    1
    28    11    33    1
    29    12    18    2
    30    12    19    1
    31    13    34    1
    32    13    35    1
    33    13    36    1
    34    14    37    1
    35    14    38    1
    36    14    39    1
    37    15    40    1
    38    15    41    1
    39    15    42    1
    40    16    18    1
    41    17    20    1
    42    17    43    1
    43    17    44    1
    44    18    45    1
    45    19    46    1
    46    19    47    1
    47    19    48    1
    48    20    21    1
    49    20    22    2
    50    21    49    1
    51    21    50    1
    52    21    51    1
    53    22    23    1
    54    22    52    1
