@<TRIPOS>MOLECULE
IMPHY000010
 25 26 0 0 0
SMALL
GASTEIGER

@<TRIPOS>ATOM
      1 O           5.5321   -0.5000    0.0000 O.2     1  UNL1       -0.4132
      2 O           4.6660   -2.0000    0.0000 O.2     1  UNL1       -0.2445
      3 C           3.8000    0.5000    0.0000 C.ar    1  UNL1       -0.0069
      4 C           3.8000   -0.5000    0.0000 C.ar    1  UNL1        0.0667
      5 C           4.6660    1.0000    0.0000 C.ar    1  UNL1       -0.0026
      6 C           2.9061    1.0347    0.0000 C.ar    1  UNL1       -0.0537
      7 C           2.9061   -1.0347    0.0000 C.ar    1  UNL1       -0.0472
      8 C           4.6660   -1.0000    0.0000 C.ar    1  UNL1        0.3456
      9 C           5.5321    0.5000    0.0000 C.ar    1  UNL1        0.1823
     10 C           2.0000    0.5208    0.0000 C.ar    1  UNL1       -0.0612
     11 C           2.0000   -0.5208    0.0000 C.ar    1  UNL1       -0.0609
     12 C           8.1301    2.0000    0.0000 C.3     1  UNL1        0.0067
     13 C           6.3981    1.0000    0.0000 C.1     1  UNL1       -0.0284
     14 C           8.9962    1.5000    0.0000 C.3     1  UNL1       -0.0543
     15 C           7.2641    1.5000    0.0000 C.1     1  UNL1       -0.0943
     16 H           4.6660    1.6200    0.0000 H       1  UNL1        0.0667
     17 H           2.9132    1.6546    0.0000 H       1  UNL1        0.0624
     18 H           2.9132   -1.6546    0.0000 H       1  UNL1        0.0626
     19 H           1.4643    0.8329    0.0000 H       1  UNL1        0.0618
     20 H           1.4643   -0.8329    0.0000 H       1  UNL1        0.0618
     21 H           8.5287    2.4750    0.0000 H       1  UNL1        0.0395
     22 H           7.7316    2.4750    0.0000 H       1  UNL1        0.0395
     23 H           8.6862    0.9631    0.0000 H       1  UNL1        0.0239
     24 H           9.5331    1.1900    0.0000 H       1  UNL1        0.0239
     25 H           9.3062    2.0369    0.0000 H       1  UNL1        0.0239
@<TRIPOS>BOND
     1     1     8   ar
     2     1     9   ar
     3     2     8    2
     4     3     4   ar
     5     3     5   ar
     6     3     6   ar
     7     4     7   ar
     8     4     8   ar
     9     5     9   ar
    10     5    16    1
    11     6    10   ar
    12     6    17    1
    13     7    11   ar
    14     7    18    1
    15     9    13    1
    16    10    11   ar
    17    10    19    1
    18    11    20    1
    19    12    14    1
    20    12    15    1
    21    12    21    1
    22    12    22    1
    23    13    15    3
    24    14    23    1
    25    14    24    1
    26    14    25    1
