@<TRIPOS>MOLECULE
IMPHY002711
 35 37 0 0 0
SMALL
GASTEIGER

@<TRIPOS>ATOM
      1 O           5.5301    0.0173    0.0000 O.3     1  UNL1       -0.4775
      2 O           7.3424   -1.1779    0.0000 O.2     1  UNL1       -0.4591
      3 O           3.7702   -0.9480    0.0000 O.2     1  UNL1       -0.4183
      4 O           5.5301    2.0173    0.0000 O.2     1  UNL1       -0.2935
      5 O           2.0000   -0.9585    0.0000 O.2     1  UNL1       -0.2452
      6 C           7.2622    2.0173    0.0000 C.3     1  UNL1        0.0153
      7 C           5.5301   -0.9827    0.0000 C.ar    1  UNL1        0.2067
      8 C           6.3961   -1.4827    0.0000 C.ar    1  UNL1        0.1799
      9 C           6.3961   -2.4827    0.0000 C.ar    1  UNL1        0.0246
     10 C           4.6641   -1.4827    0.0000 C.ar    1  UNL1        0.1842
     11 C           4.6641   -2.4827    0.0000 C.ar    1  UNL1        0.0221
     12 C           6.3961    0.5173    0.0000 C.3     1  UNL1        0.1478
     13 C           5.5301   -2.9827    0.0000 C.ar    1  UNL1       -0.0401
     14 C           6.3961    1.5173    0.0000 C.2     1  UNL1        0.1729
     15 C           7.2622    3.0173    0.0000 C.3     1  UNL1       -0.0558
     16 C           8.1282    1.5173    0.0000 C.3     1  UNL1       -0.0558
     17 C           7.3424   -2.7874    0.0000 C.ar    1  UNL1       -0.0160
     18 C           3.7702   -3.0173    0.0000 C.ar    1  UNL1       -0.0442
     19 C           7.9260   -1.9827    0.0000 C.ar    1  UNL1        0.0933
     20 C           2.8641   -2.5035    0.0000 C.ar    1  UNL1        0.0236
     21 C           2.8641   -1.4619    0.0000 C.ar    1  UNL1        0.3373
     22 H           6.7252    2.3273    0.0000 H       1  UNL1        0.0373
     23 H           6.6082   -0.0653    0.0000 H       1  UNL1        0.0777
     24 H           7.0067    0.6250    0.0000 H       1  UNL1        0.0777
     25 H           5.5301   -3.6027    0.0000 H       1  UNL1        0.0632
     26 H           7.8182    0.9804    0.0000 H       1  UNL1        0.0236
     27 H           8.6651    1.2073    0.0000 H       1  UNL1        0.0236
     28 H           7.8822    3.0173    0.0000 H       1  UNL1        0.0236
     29 H           7.2622    3.6373    0.0000 H       1  UNL1        0.0236
     30 H           6.6422    3.0173    0.0000 H       1  UNL1        0.0236
     31 H           8.4382    2.0543    0.0000 H       1  UNL1        0.0236
     32 H           7.5350   -3.3767    0.0000 H       1  UNL1        0.0655
     33 H           3.7773   -3.6373    0.0000 H       1  UNL1        0.0627
     34 H           8.5460   -1.9827    0.0000 H       1  UNL1        0.1030
     35 H           2.3284   -2.8156    0.0000 H       1  UNL1        0.0689
@<TRIPOS>BOND
     1     1     7    1
     2     1    12    1
     3     2     8   ar
     4     2    19   ar
     5     3    10   ar
     6     3    21   ar
     7     4    14    2
     8     5    21    2
     9     6    14    1
    10     6    15    1
    11     6    16    1
    12     6    22    1
    13     7     8   ar
    14     7    10   ar
    15     8     9   ar
    16     9    13   ar
    17     9    17   ar
    18    10    11   ar
    19    11    13   ar
    20    11    18   ar
    21    12    14    1
    22    12    23    1
    23    12    24    1
    24    13    25    1
    25    15    28    1
    26    15    29    1
    27    15    30    1
    28    16    26    1
    29    16    27    1
    30    16    31    1
    31    17    19   ar
    32    17    32    1
    33    18    20   ar
    34    18    33    1
    35    19    34    1
    36    20    21   ar
    37    20    35    1
