@<TRIPOS>MOLECULE
IMPHY015840
 32 31 0 0 0
SMALL
GASTEIGER

@<TRIPOS>ATOM
      1 O           2.8660    0.7500    0.0000 O.3     1  UNL1       -0.4679
      2 O           3.7320   -0.7500    0.0000 O.2     1  UNL1       -0.2509
      3 C           7.1962    0.2500    0.0000 C.3     1  UNL1       -0.0530
      4 C           8.0622    0.7500    0.0000 C.3     1  UNL1       -0.0531
      5 C           6.3301    0.7500    0.0000 C.3     1  UNL1       -0.0526
      6 C           8.9282    0.2500    0.0000 C.3     1  UNL1       -0.0533
      7 C           5.4641    0.2500    0.0000 C.3     1  UNL1       -0.0430
      8 C           9.7942    0.7500    0.0000 C.3     1  UNL1       -0.0559
      9 C           4.5981    0.7500    0.0000 C.3     1  UNL1        0.0449
     10 C          10.6603    0.2500    0.0000 C.3     1  UNL1       -0.0653
     11 C           3.7320    0.2500    0.0000 C.2     1  UNL1        0.3068
     12 C           2.0000    0.2500    0.0000 C.3     1  UNL1        0.0817
     13 H           6.7976   -0.2249    0.0000 H       1  UNL1        0.0265
     14 H           7.5947   -0.2249    0.0000 H       1  UNL1        0.0265
     15 H           8.4607    1.2250    0.0000 H       1  UNL1        0.0265
     16 H           7.6636    1.2250    0.0000 H       1  UNL1        0.0265
     17 H           6.7287    1.2250    0.0000 H       1  UNL1        0.0265
     18 H           5.9316    1.2250    0.0000 H       1  UNL1        0.0265
     19 H           8.5297   -0.2249    0.0000 H       1  UNL1        0.0265
     20 H           9.3267   -0.2249    0.0000 H       1  UNL1        0.0265
     21 H           5.0656   -0.2249    0.0000 H       1  UNL1        0.0270
     22 H           5.8626   -0.2249    0.0000 H       1  UNL1        0.0270
     23 H          10.1928    1.2250    0.0000 H       1  UNL1        0.0263
     24 H           9.3957    1.2250    0.0000 H       1  UNL1        0.0263
     25 H           4.9966    1.2250    0.0000 H       1  UNL1        0.0377
     26 H           4.1996    1.2250    0.0000 H       1  UNL1        0.0377
     27 H          10.3503   -0.2869    0.0000 H       1  UNL1        0.0230
     28 H          11.1972   -0.0600    0.0000 H       1  UNL1        0.0230
     29 H          10.9703    0.7869    0.0000 H       1  UNL1        0.0230
     30 H           1.6900    0.7869    0.0000 H       1  UNL1        0.0661
     31 H           1.4631   -0.0600    0.0000 H       1  UNL1        0.0661
     32 H           2.3100   -0.2869    0.0000 H       1  UNL1        0.0661
@<TRIPOS>BOND
     1     1    11    1
     2     1    12    1
     3     2    11    2
     4     3     4    1
     5     3     5    1
     6     3    13    1
     7     3    14    1
     8     4     6    1
     9     4    15    1
    10     4    16    1
    11     5     7    1
    12     5    17    1
    13     5    18    1
    14     6     8    1
    15     6    19    1
    16     6    20    1
    17     7     9    1
    18     7    21    1
    19     7    22    1
    20     8    10    1
    21     8    23    1
    22     8    24    1
    23     9    11    1
    24     9    25    1
    25     9    26    1
    26    10    27    1
    27    10    28    1
    28    10    29    1
    29    12    30    1
    30    12    31    1
    31    12    32    1
