@<TRIPOS>MOLECULE
IMPHY008994
 34 36 0 0 0
SMALL
GASTEIGER

@<TRIPOS>ATOM
      1 O           5.5301    1.3419    0.0000 O.2     1  UNL1       -0.2864
      2 O           3.7817    1.3765    0.0000 O.3     1  UNL1       -0.5060
      3 O           7.2785    1.3765    0.0000 O.3     1  UNL1       -0.5059
      4 O           9.0602   -1.6822    0.0000 O.3     1  UNL1       -0.4950
      5 C           5.5301   -1.6581    0.0000 C.3     1  UNL1       -0.0007
      6 C           4.6641   -1.1581    0.0000 C.ar    1  UNL1       -0.0285
      7 C           6.3961   -1.1581    0.0000 C.ar    1  UNL1       -0.0253
      8 C           4.6641   -0.1581    0.0000 C.ar    1  UNL1        0.0672
      9 C           6.3961   -0.1581    0.0000 C.ar    1  UNL1        0.0674
     10 C           5.5301    0.3419    0.0000 C.2     1  UNL1        0.2007
     11 C           3.7702   -1.6927    0.0000 C.ar    1  UNL1       -0.0544
     12 C           3.7702    0.3766    0.0000 C.ar    1  UNL1        0.1282
     13 C           7.2901   -1.6927    0.0000 C.ar    1  UNL1       -0.0156
     14 C           7.2901    0.3766    0.0000 C.ar    1  UNL1        0.1314
     15 C           2.8641   -1.1789    0.0000 C.ar    1  UNL1       -0.0467
     16 C           2.8641   -0.1372    0.0000 C.ar    1  UNL1       -0.0165
     17 C           8.1962   -1.1789    0.0000 C.ar    1  UNL1        0.1239
     18 C           8.1962   -0.1372    0.0000 C.ar    1  UNL1        0.0223
     19 C           2.0000   -1.6822    0.0000 C.3     1  UNL1       -0.0396
     20 C           9.9282   -1.1856    0.0000 C.3     1  UNL1        0.0788
     21 H           5.1316   -2.1330    0.0000 H       1  UNL1        0.0362
     22 H           5.9286   -2.1330    0.0000 H       1  UNL1        0.0362
     23 H           3.7773   -2.3127    0.0000 H       1  UNL1        0.0623
     24 H           7.2829   -2.3127    0.0000 H       1  UNL1        0.0657
     25 H           2.3284    0.1748    0.0000 H       1  UNL1        0.0657
     26 H           8.7319    0.1748    0.0000 H       1  UNL1        0.0691
     27 H           1.6879   -1.1465    0.0000 H       1  UNL1        0.0278
     28 H           1.4643   -1.9943    0.0000 H       1  UNL1        0.0278
     29 H           2.3121   -2.2180    0.0000 H       1  UNL1        0.0278
     30 H           3.2484    1.6927    0.0000 H       1  UNL1        0.2922
     31 H           7.8118    1.6927    0.0000 H       1  UNL1        0.2922
     32 H          10.2361   -1.7237    0.0000 H       1  UNL1        0.0660
     33 H          10.4663   -0.8776    0.0000 H       1  UNL1        0.0660
     34 H           9.6203   -0.6474    0.0000 H       1  UNL1        0.0660
@<TRIPOS>BOND
     1     1    10    2
     2     2    12    1
     3     2    30    1
     4     3    14    1
     5     3    31    1
     6     4    17    1
     7     4    20    1
     8     5     6    1
     9     5     7    1
    10     5    21    1
    11     5    22    1
    12     6     8   ar
    13     6    11   ar
    14     7     9   ar
    15     7    13   ar
    16     8    10    1
    17     8    12   ar
    18     9    10    1
    19     9    14   ar
    20    11    15   ar
    21    11    23    1
    22    12    16   ar
    23    13    17   ar
    24    13    24    1
    25    14    18   ar
    26    15    16   ar
    27    15    19    1
    28    16    25    1
    29    17    18   ar
    30    18    26    1
    31    19    27    1
    32    19    28    1
    33    19    29    1
    34    20    32    1
    35    20    33    1
    36    20    34    1
