@<TRIPOS>MOLECULE
IMPHY017040
 18 19 0 0 0
SMALL
GASTEIGER

@<TRIPOS>ATOM
      1 O           2.0000   -1.1899    0.0000 O.2     1  UNL1       -0.2974
      2 C           5.2486    0.4245    0.0000 C.3     1  UNL1       -0.0339
      3 C           4.9898   -0.5414    0.0000 C.3     1  UNL1       -0.0339
      4 C           6.3887   -0.5326    0.0000 C.3     1  UNL1       -0.0466
      5 C           4.5120    1.4071    0.0000 C.3     1  UNL1       -0.0466
      6 C           3.2153    0.1134    0.0000 C.3     1  UNL1        0.0087
      7 C           3.7687   -1.4071    0.0000 C.3     1  UNL1        0.0087
      8 C           2.9397   -0.8479    0.0000 C.2     1  UNL1        0.1339
      9 H           5.6989    0.8507    0.0000 H       1  UNL1        0.0305
     10 H           5.1798   -1.1316    0.0000 H       1  UNL1        0.0305
     11 H           6.5690   -1.1258    0.0000 H       1  UNL1        0.0271
     12 H           6.9060   -0.1909    0.0000 H       1  UNL1        0.0271
     13 H           4.8298    1.9395    0.0000 H       1  UNL1        0.0271
     14 H           3.8988    1.4991    0.0000 H       1  UNL1        0.0271
     15 H           3.2103    0.7333    0.0000 H       1  UNL1        0.0344
     16 H           2.6010    0.1971    0.0000 H       1  UNL1        0.0344
     17 H           3.3629   -1.8758    0.0000 H       1  UNL1        0.0344
     18 H           4.1854   -1.8662    0.0000 H       1  UNL1        0.0344
@<TRIPOS>BOND
     1     1     8    2
     2     2     4    1
     3     2     5    1
     4     2     6    1
     5     2     9    1
     6     3     4    1
     7     3     5    1
     8     3     7    1
     9     3    10    1
    10     4    11    1
    11     4    12    1
    12     5    13    1
    13     5    14    1
    14     6     8    1
    15     6    15    1
    16     6    16    1
    17     7     8    1
    18     7    17    1
    19     7    18    1
