@<TRIPOS>MOLECULE
IMPHY008356
 85 88 0 0 0
SMALL
GASTEIGER

@<TRIPOS>ATOM
      1 O           5.1350   -3.5000    0.0000 O.3     1  UNL1       -0.3404
      2 O           6.8671   -3.5000    0.0000 O.3     1  UNL1       -0.3061
      3 O           5.1350   -6.5000    0.0000 O.3     1  UNL1       -0.3864
      4 O           3.4030   -5.5000    0.0000 O.3     1  UNL1       -0.3865
      5 O           6.8671   -5.5000    0.0000 O.3     1  UNL1       -0.3841
      6 O           6.0010   -2.0000    0.0000 O.2     1  UNL1       -0.4666
      7 O           2.5369   -4.0000    0.0000 O.3     1  UNL1       -0.3924
      8 O           6.0010    1.0000    0.0000 O.3     1  UNL1       -0.4610
      9 O           9.9259    0.6133    0.0000 O.3     1  UNL1       -0.4643
     10 O           7.7331    1.0000    0.0000 O.2     1  UNL1       -0.2452
     11 O          10.2267   -1.0924    0.0000 O.2     1  UNL1       -0.2508
     12 O           6.8671    5.5000    0.0000 O.3     1  UNL1       -0.5033
     13 O          14.5080    0.5419    0.0000 O.3     1  UNL1       -0.5033
     14 O           5.1350    6.5000    0.0000 O.3     1  UNL1       -0.5033
     15 O          15.1920    2.4213    0.0000 O.3     1  UNL1       -0.5033
     16 C           5.1350   -5.5000    0.0000 C.3     1  UNL1        0.1141
     17 C           4.2690   -5.0000    0.0000 C.3     1  UNL1        0.1119
     18 C           6.0010   -5.0000    0.0000 C.3     1  UNL1        0.1343
     19 C           4.2690   -4.0000    0.0000 C.3     1  UNL1        0.1130
     20 C           6.0010   -4.0000    0.0000 C.3     1  UNL1        0.1921
     21 C           3.4030   -3.5000    0.0000 C.3     1  UNL1        0.0730
     22 C           6.8671   -2.5000    0.0000 C.3     1  UNL1        0.2266
     23 C           7.7331   -1.0000    0.0000 C.3     1  UNL1        0.0307
     24 C           7.7331   -2.0000    0.0000 C.2     1  UNL1        0.0019
     25 C           6.8671   -0.5000    0.0000 C.2     1  UNL1        0.0785
     26 C           8.5991   -0.5000    0.0000 C.3     1  UNL1        0.0559
     27 C           6.0010   -1.0000    0.0000 C.2     1  UNL1        0.0988
     28 C           8.5991   -2.5000    0.0000 C.2     1  UNL1       -0.0814
     29 C           6.8671    0.5000    0.0000 C.2     1  UNL1        0.3387
     30 C           9.5839   -0.3264    0.0000 C.2     1  UNL1        0.3080
     31 C           9.5839   -2.6736    0.0000 C.3     1  UNL1       -0.0464
     32 C           6.0010    2.0000    0.0000 C.3     1  UNL1        0.0967
     33 C          10.9107    0.7870    0.0000 C.3     1  UNL1        0.0964
     34 C           5.1350    2.5000    0.0000 C.3     1  UNL1        0.0069
     35 C          11.2528    1.7267    0.0000 C.3     1  UNL1        0.0069
     36 C           5.1350    3.5000    0.0000 C.ar    1  UNL1       -0.0405
     37 C          12.2376    1.9003    0.0000 C.ar    1  UNL1       -0.0405
     38 C           6.0010    4.0000    0.0000 C.ar    1  UNL1       -0.0132
     39 C           4.2690    4.0000    0.0000 C.ar    1  UNL1       -0.0548
     40 C          12.8804    1.1343    0.0000 C.ar    1  UNL1       -0.0132
     41 C          12.5796    2.8400    0.0000 C.ar    1  UNL1       -0.0548
     42 C           6.0010    5.0000    0.0000 C.ar    1  UNL1        0.1585
     43 C          13.8652    1.3079    0.0000 C.ar    1  UNL1        0.1585
     44 C           4.2690    5.0000    0.0000 C.ar    1  UNL1       -0.0163
     45 C          13.5644    3.0137    0.0000 C.ar    1  UNL1       -0.0163
     46 C           5.1350    5.5000    0.0000 C.ar    1  UNL1        0.1582
     47 C          14.2072    2.2476    0.0000 C.ar    1  UNL1        0.1582
     48 H           5.6720   -5.8100    0.0000 H       1  UNL1        0.0648
     49 H           4.2690   -5.6200    0.0000 H       1  UNL1        0.0647
     50 H           6.5380   -4.6900    0.0000 H       1  UNL1        0.0671
     51 H           4.2690   -3.3800    0.0000 H       1  UNL1        0.0647
     52 H           6.0010   -3.3800    0.0000 H       1  UNL1        0.0939
     53 H           3.8015   -3.0250    0.0000 H       1  UNL1        0.0584
     54 H           3.0044   -3.0250    0.0000 H       1  UNL1        0.0584
     55 H           7.4040   -2.8100    0.0000 H       1  UNL1        0.1109
     56 H           8.2700   -1.3100    0.0000 H       1  UNL1        0.0404
     57 H           4.5981   -6.8100    0.0000 H       1  UNL1        0.2100
     58 H           3.4030   -6.1200    0.0000 H       1  UNL1        0.2100
     59 H           6.8671   -6.1200    0.0000 H       1  UNL1        0.2101
     60 H           8.7421    0.1033    0.0000 H       1  UNL1        0.0387
     61 H           8.8112   -1.0826    0.0000 H       1  UNL1        0.0387
     62 H           5.4641   -0.6900    0.0000 H       1  UNL1        0.1030
     63 H           8.5991   -3.1200    0.0000 H       1  UNL1        0.0571
     64 H           2.0000   -3.6900    0.0000 H       1  UNL1        0.2095
     65 H           9.4763   -3.2842    0.0000 H       1  UNL1        0.0272
     66 H          10.1945   -2.7813    0.0000 H       1  UNL1        0.0272
     67 H           9.6916   -2.0631    0.0000 H       1  UNL1        0.0272
     68 H           6.6116    1.8923    0.0000 H       1  UNL1        0.0701
     69 H           6.2131    2.5826    0.0000 H       1  UNL1        0.0701
     70 H          10.9107    0.1670    0.0000 H       1  UNL1        0.0701
     71 H          11.5213    0.6793    0.0000 H       1  UNL1        0.0701
     72 H           4.5244    2.6077    0.0000 H       1  UNL1        0.0346
     73 H           4.9230    1.9174    0.0000 H       1  UNL1        0.0346
     74 H          11.2528    2.3467    0.0000 H       1  UNL1        0.0346
     75 H          10.6422    1.8343    0.0000 H       1  UNL1        0.0346
     76 H           6.5380    3.6900    0.0000 H       1  UNL1        0.0658
     77 H           3.7320    3.6900    0.0000 H       1  UNL1        0.0621
     78 H          12.6683    0.5517    0.0000 H       1  UNL1        0.0658
     79 H          12.1811    3.3150    0.0000 H       1  UNL1        0.0621
     80 H           3.7320    5.3100    0.0000 H       1  UNL1        0.0655
     81 H          13.7765    3.5963    0.0000 H       1  UNL1        0.0655
     82 H           6.8671    6.1200    0.0000 H       1  UNL1        0.2923
     83 H          15.1185    0.6496    0.0000 H       1  UNL1        0.2923
     84 H           4.5981    6.8100    0.0000 H       1  UNL1        0.2923
     85 H          15.4041    3.0039    0.0000 H       1  UNL1        0.2923
@<TRIPOS>BOND
     1     1    19    1
     2     1    20    1
     3    20     2    1
     4    22     2    1
     5    16     3    1
     6     3    57    1
     7    17     4    1
     8     4    58    1
     9    18     5    1
    10     5    59    1
    11     6    22    1
    12     6    27    1
    13     7    21    1
    14     7    64    1
    15     8    29    1
    16     8    32    1
    17     9    30    1
    18     9    33    1
    19    10    29    2
    20    11    30    2
    21    12    42    1
    22    12    82    1
    23    13    43    1
    24    13    83    1
    25    14    46    1
    26    14    84    1
    27    15    47    1
    28    15    85    1
    29    16    17    1
    30    16    18    1
    31    16    48    1
    32    17    19    1
    33    17    49    1
    34    18    20    1
    35    18    50    1
    36    19    21    1
    37    19    51    1
    38    20    52    1
    39    21    53    1
    40    21    54    1
    41    22    24    1
    42    22    55    1
    43    23    24    1
    44    23    25    1
    45    23    26    1
    46    23    56    1
    47    24    28    2
    48    25    27    2
    49    25    29    1
    50    26    30    1
    51    26    60    1
    52    26    61    1
    53    27    62    1
    54    28    31    1
    55    28    63    1
    56    31    65    1
    57    31    66    1
    58    31    67    1
    59    32    34    1
    60    32    68    1
    61    32    69    1
    62    33    35    1
    63    33    70    1
    64    33    71    1
    65    34    36    1
    66    34    72    1
    67    34    73    1
    68    35    37    1
    69    35    74    1
    70    35    75    1
    71    36    38   ar
    72    36    39   ar
    73    37    40   ar
    74    37    41   ar
    75    38    42   ar
    76    38    76    1
    77    39    44   ar
    78    39    77    1
    79    40    43   ar
    80    40    78    1
    81    41    45   ar
    82    41    79    1
    83    42    46   ar
    84    43    47   ar
    85    44    46   ar
    86    44    80    1
    87    45    47   ar
    88    45    81    1
