@<TRIPOS>MOLECULE
IMPHY000402
 29 30 0 0 0
SMALL
GASTEIGER

@<TRIPOS>ATOM
      1 O           3.2369    1.8108    0.0000 O.3     1  UNL1       -0.3670
      2 C           3.7147   -0.1378    0.0000 C.3     1  UNL1        0.0727
      3 C           3.9735    0.8282    0.0000 C.3     1  UNL1        0.0677
      4 C           2.3420   -0.7298    0.0000 C.3     1  UNL1       -0.0209
      5 C           5.1137   -0.6466    0.0000 C.3     1  UNL1       -0.0209
      6 C           2.0000    0.2099    0.0000 C.3     1  UNL1       -0.0214
      7 C           5.3725    0.3194    0.0000 C.3     1  UNL1       -0.0214
      8 C           3.4559   -1.1037    0.0000 C.3     1  UNL1       -0.0175
      9 C           4.2324    1.7941    0.0000 C.3     1  UNL1       -0.0358
     10 C           4.1630   -1.8108    0.0000 C.3     1  UNL1       -0.0601
     11 C           2.4900   -1.3625    0.0000 C.3     1  UNL1       -0.0601
     12 H           1.7636   -0.9531    0.0000 H       1  UNL1        0.0294
     13 H           2.5765   -1.3037    0.0000 H       1  UNL1        0.0294
     14 H           4.9187   -1.2351    0.0000 H       1  UNL1        0.0294
     15 H           5.7076   -0.8243    0.0000 H       1  UNL1        0.0294
     16 H           1.8057    0.7987    0.0000 H       1  UNL1        0.0294
     17 H           1.4142    0.0067    0.0000 H       1  UNL1        0.0294
     18 H           5.9664    0.1416    0.0000 H       1  UNL1        0.0294
     19 H           5.5674    0.9079    0.0000 H       1  UNL1        0.0294
     20 H           3.0175   -0.6653    0.0000 H       1  UNL1        0.0323
     21 H           4.8312    1.6336    0.0000 H       1  UNL1        0.0257
     22 H           4.3928    2.3930    0.0000 H       1  UNL1        0.0257
     23 H           3.6335    1.9546    0.0000 H       1  UNL1        0.0257
     24 H           3.7246   -2.2492    0.0000 H       1  UNL1        0.0233
     25 H           4.6014   -2.2492    0.0000 H       1  UNL1        0.0233
     26 H           4.6014   -1.3724    0.0000 H       1  UNL1        0.0233
     27 H           2.3295   -0.7636    0.0000 H       1  UNL1        0.0233
     28 H           1.8911   -1.5230    0.0000 H       1  UNL1        0.0233
     29 H           2.6505   -1.9614    0.0000 H       1  UNL1        0.0233
@<TRIPOS>BOND
     1     1     2    1
     2     1     3    1
     3     2     4    1
     4     2     5    1
     5     2     8    1
     6     3     6    1
     7     3     7    1
     8     3     9    1
     9     4     6    1
    10     4    12    1
    11     4    13    1
    12     5     7    1
    13     5    14    1
    14     5    15    1
    15     6    16    1
    16     6    17    1
    17     7    18    1
    18     7    19    1
    19     8    10    1
    20     8    11    1
    21     8    20    1
    22     9    21    1
    23     9    22    1
    24     9    23    1
    25    10    24    1
    26    10    25    1
    27    10    26    1
    28    11    27    1
    29    11    28    1
    30    11    29    1
