@<TRIPOS>MOLECULE
IMPHY000326
 67 71 0 0 0
SMALL
GASTEIGER

@<TRIPOS>ATOM
      1 O           8.2790   -2.3248    0.0000 O.3     1  UNL1       -0.3875
      2 N           9.0503    2.3457    0.0000 N.3     1  UNL1       -0.3018
      3 N           2.8641   -2.3457    0.0000 N.3     1  UNL1       -0.3051
      4 C           8.2572    0.7066    0.0000 C.3     1  UNL1       -0.0091
      5 C           8.2572   -0.2934    0.0000 C.3     1  UNL1       -0.0282
      6 C           9.2034    1.0114    0.0000 C.3     1  UNL1       -0.0186
      7 C           7.3912   -0.7934    0.0000 C.3     1  UNL1       -0.0044
      8 C           6.5251   -0.2934    0.0000 C.3     1  UNL1       -0.0262
      9 C           7.3912    1.2066    0.0000 C.3     1  UNL1       -0.0454
     10 C           9.2034   -0.5981    0.0000 C.3     1  UNL1       -0.0490
     11 C           8.1590    1.6899    0.0000 C.3     1  UNL1        0.0051
     12 C           9.7870    0.2066    0.0000 C.3     1  UNL1       -0.0480
     13 C           6.5251    0.7066    0.0000 C.3     1  UNL1       -0.0485
     14 C           9.6975    1.8672    0.0000 C.3     1  UNL1        0.0107
     15 C           5.6151   -0.8002    0.0000 C.3     1  UNL1       -0.0077
     16 C           7.4072   -1.8349    0.0000 C.3     1  UNL1        0.0770
     17 C           5.6071   -1.8418    0.0000 C.2     1  UNL1       -0.0634
     18 C           4.6883   -0.2361    0.0000 C.3     1  UNL1       -0.0422
     19 C           6.5092   -2.3626    0.0000 C.2     1  UNL1       -0.0558
     20 C          10.6488    2.1754    0.0000 C.3     1  UNL1       -0.0492
     21 C           5.6228    0.1997    0.0000 C.3     1  UNL1       -0.0556
     22 C           4.6717   -2.3916    0.0000 C.3     1  UNL1       -0.0155
     23 C           3.7404   -0.7641    0.0000 C.3     1  UNL1       -0.0363
     24 C           9.0529    3.3457    0.0000 C.3     1  UNL1       -0.0125
     25 C           3.7320   -1.8490    0.0000 C.3     1  UNL1        0.0135
     26 C           2.0000   -1.8424    0.0000 C.3     1  UNL1       -0.0128
     27 C           2.8602   -3.3457    0.0000 C.3     1  UNL1       -0.0128
     28 H           8.3471   -1.1386    0.0000 H       1  UNL1        0.0310
     29 H          10.0522    1.0555    0.0000 H       1  UNL1        0.0322
     30 H           8.1305   -1.2127    0.0000 H       1  UNL1        0.0335
     31 H           7.2612    0.1316    0.0000 H       1  UNL1        0.0313
     32 H           7.7897    1.6816    0.0000 H       1  UNL1        0.0271
     33 H           6.9926    1.6816    0.0000 H       1  UNL1        0.0271
     34 H           8.9524   -1.1650    0.0000 H       1  UNL1        0.0268
     35 H           9.7408   -0.9073    0.0000 H       1  UNL1        0.0268
     36 H           7.8859    2.2466    0.0000 H       1  UNL1        0.0432
     37 H           7.5628    1.5199    0.0000 H       1  UNL1        0.0432
     38 H          10.2479   -0.2081    0.0000 H       1  UNL1        0.0269
     39 H          10.2479    0.6214    0.0000 H       1  UNL1        0.0269
     40 H           6.3131    1.2892    0.0000 H       1  UNL1        0.0268
     41 H           5.9145    0.5990    0.0000 H       1  UNL1        0.0268
     42 H           9.7973    2.4791    0.0000 H       1  UNL1        0.0463
     43 H           7.9399   -1.5177    0.0000 H       1  UNL1        0.0640
     44 H           5.0965    0.2305    0.0000 H       1  UNL1        0.0274
     45 H           4.2984    0.2459    0.0000 H       1  UNL1        0.0274
     46 H           6.5116   -2.9826    0.0000 H       1  UNL1        0.0597
     47 H          10.8399    1.5855    0.0000 H       1  UNL1        0.0245
     48 H          11.2386    2.3664    0.0000 H       1  UNL1        0.0245
     49 H          10.4577    2.7652    0.0000 H       1  UNL1        0.0245
     50 H           6.2428    0.1950    0.0000 H       1  UNL1        0.0238
     51 H           5.6276    0.8197    0.0000 H       1  UNL1        0.0238
     52 H           5.0028    0.2045    0.0000 H       1  UNL1        0.0238
     53 H           4.2744   -2.8675    0.0000 H       1  UNL1        0.0325
     54 H           5.0726   -2.8644    0.0000 H       1  UNL1        0.0325
     55 H           3.5358   -0.1788    0.0000 H       1  UNL1        0.0281
     56 H           3.1288   -0.8655    0.0000 H       1  UNL1        0.0281
     57 H           9.6729    3.3441    0.0000 H       1  UNL1        0.0391
     58 H           9.0545    3.9657    0.0000 H       1  UNL1        0.0391
     59 H           8.4329    3.3473    0.0000 H       1  UNL1        0.0391
     60 H           3.7308   -2.4691    0.0000 H       1  UNL1        0.0465
     61 H           8.2861   -2.9448    0.0000 H       1  UNL1        0.2102
     62 H           2.3121   -1.3066    0.0000 H       1  UNL1        0.0391
     63 H           1.4643   -1.5303    0.0000 H       1  UNL1        0.0391
     64 H           1.6879   -2.3781    0.0000 H       1  UNL1        0.0391
     65 H           2.2402   -3.3433    0.0000 H       1  UNL1        0.0391
     66 H           2.8578   -3.9657    0.0000 H       1  UNL1        0.0391
     67 H           3.4802   -3.3481    0.0000 H       1  UNL1        0.0391
@<TRIPOS>BOND
     1    16     1    1
     2     1    61    1
     3     2    11    1
     4     2    14    1
     5     2    24    1
     6    25     3    1
     7     3    26    1
     8     3    27    1
     9     4     5    1
    10     4     6    1
    11     4     9    1
    12     4    11    1
    13     5     7    1
    14     5    10    1
    15     5    28    1
    16     6    12    1
    17     6    14    1
    18     6    29    1
    19     7     8    1
    20     7    16    1
    21     7    30    1
    22     8    13    1
    23     8    15    1
    24     8    31    1
    25     9    13    1
    26     9    32    1
    27     9    33    1
    28    10    12    1
    29    10    34    1
    30    10    35    1
    31    11    36    1
    32    11    37    1
    33    12    38    1
    34    12    39    1
    35    13    40    1
    36    13    41    1
    37    14    20    1
    38    14    42    1
    39    15    17    1
    40    15    18    1
    41    15    21    1
    42    16    19    1
    43    16    43    1
    44    17    19    2
    45    17    22    1
    46    18    23    1
    47    18    44    1
    48    18    45    1
    49    19    46    1
    50    20    47    1
    51    20    48    1
    52    20    49    1
    53    21    50    1
    54    21    51    1
    55    21    52    1
    56    22    25    1
    57    22    53    1
    58    22    54    1
    59    23    25    1
    60    23    55    1
    61    23    56    1
    62    24    57    1
    63    24    58    1
    64    24    59    1
    65    25    60    1
    66    26    62    1
    67    26    63    1
    68    26    64    1
    69    27    65    1
    70    27    66    1
    71    27    67    1
