@<TRIPOS>MOLECULE
IMPHY011861
 88 87 0 0 0
SMALL
GASTEIGER

@<TRIPOS>ATOM
      1 O          14.1244   -0.7500    0.0000 O.2     1  UNL1       -0.2974
      2 C           8.9282    0.2500    0.0000 C.3     1  UNL1       -0.0531
      3 C          19.3205    0.2500    0.0000 C.3     1  UNL1       -0.0531
      4 C          18.4545    0.7500    0.0000 C.3     1  UNL1       -0.0531
      5 C           9.7942    0.7500    0.0000 C.3     1  UNL1       -0.0531
      6 C           8.0622    0.7500    0.0000 C.3     1  UNL1       -0.0531
      7 C          20.1865    0.7500    0.0000 C.3     1  UNL1       -0.0531
      8 C          10.6603    0.2500    0.0000 C.3     1  UNL1       -0.0530
      9 C          17.5885    0.2500    0.0000 C.3     1  UNL1       -0.0530
     10 C           7.1962    0.2500    0.0000 C.3     1  UNL1       -0.0531
     11 C          21.0526    0.2500    0.0000 C.3     1  UNL1       -0.0531
     12 C          16.7224    0.7500    0.0000 C.3     1  UNL1       -0.0527
     13 C          11.5263    0.7500    0.0000 C.3     1  UNL1       -0.0527
     14 C           6.3301    0.7500    0.0000 C.3     1  UNL1       -0.0531
     15 C          21.9186    0.7500    0.0000 C.3     1  UNL1       -0.0531
     16 C          12.3923    0.2500    0.0000 C.3     1  UNL1       -0.0464
     17 C          15.8564    0.2500    0.0000 C.3     1  UNL1       -0.0464
     18 C           5.4641    0.2500    0.0000 C.3     1  UNL1       -0.0531
     19 C          22.7846    0.2500    0.0000 C.3     1  UNL1       -0.0531
     20 C          14.9904    0.7500    0.0000 C.3     1  UNL1        0.0058
     21 C          13.2583    0.7500    0.0000 C.3     1  UNL1        0.0058
     22 C           4.5981    0.7500    0.0000 C.3     1  UNL1       -0.0531
     23 C          23.6506    0.7500    0.0000 C.3     1  UNL1       -0.0531
     24 C          14.1244    0.2500    0.0000 C.2     1  UNL1        0.1334
     25 C           3.7320    0.2500    0.0000 C.3     1  UNL1       -0.0533
     26 C          24.5167    0.2500    0.0000 C.3     1  UNL1       -0.0533
     27 C          25.3827    0.7500    0.0000 C.3     1  UNL1       -0.0559
     28 C           2.8660    0.7500    0.0000 C.3     1  UNL1       -0.0559
     29 C          26.2487    0.2500    0.0000 C.3     1  UNL1       -0.0653
     30 C           2.0000    0.2500    0.0000 C.3     1  UNL1       -0.0653
     31 H          18.9220   -0.2249    0.0000 H       1  UNL1        0.0265
     32 H          19.7190   -0.2249    0.0000 H       1  UNL1        0.0265
     33 H           8.5297   -0.2249    0.0000 H       1  UNL1        0.0265
     34 H           9.3267   -0.2249    0.0000 H       1  UNL1        0.0265
     35 H          10.1928    1.2250    0.0000 H       1  UNL1        0.0265
     36 H           9.3957    1.2250    0.0000 H       1  UNL1        0.0265
     37 H          18.8530    1.2250    0.0000 H       1  UNL1        0.0265
     38 H          18.0560    1.2250    0.0000 H       1  UNL1        0.0265
     39 H          20.5851    1.2250    0.0000 H       1  UNL1        0.0265
     40 H          19.7880    1.2250    0.0000 H       1  UNL1        0.0265
     41 H           8.4607    1.2250    0.0000 H       1  UNL1        0.0265
     42 H           7.6636    1.2250    0.0000 H       1  UNL1        0.0265
     43 H          17.1899   -0.2249    0.0000 H       1  UNL1        0.0265
     44 H          17.9870   -0.2249    0.0000 H       1  UNL1        0.0265
     45 H          10.2617   -0.2249    0.0000 H       1  UNL1        0.0265
     46 H          11.0588   -0.2249    0.0000 H       1  UNL1        0.0265
     47 H          20.6540   -0.2249    0.0000 H       1  UNL1        0.0265
     48 H          21.4511   -0.2249    0.0000 H       1  UNL1        0.0265
     49 H           6.7976   -0.2249    0.0000 H       1  UNL1        0.0265
     50 H           7.5947   -0.2249    0.0000 H       1  UNL1        0.0265
     51 H          17.1210    1.2250    0.0000 H       1  UNL1        0.0265
     52 H          16.3239    1.2250    0.0000 H       1  UNL1        0.0265
     53 H          11.9248    1.2250    0.0000 H       1  UNL1        0.0265
     54 H          11.1278    1.2250    0.0000 H       1  UNL1        0.0265
     55 H          22.3171    1.2250    0.0000 H       1  UNL1        0.0265
     56 H          21.5201    1.2250    0.0000 H       1  UNL1        0.0265
     57 H           6.7287    1.2250    0.0000 H       1  UNL1        0.0265
     58 H           5.9316    1.2250    0.0000 H       1  UNL1        0.0265
     59 H          15.4579   -0.2249    0.0000 H       1  UNL1        0.0269
     60 H          16.2549   -0.2249    0.0000 H       1  UNL1        0.0269
     61 H          11.9938   -0.2249    0.0000 H       1  UNL1        0.0269
     62 H          12.7908   -0.2249    0.0000 H       1  UNL1        0.0269
     63 H           5.0656   -0.2249    0.0000 H       1  UNL1        0.0265
     64 H           5.8626   -0.2249    0.0000 H       1  UNL1        0.0265
     65 H          22.3861   -0.2249    0.0000 H       1  UNL1        0.0265
     66 H          23.1831   -0.2249    0.0000 H       1  UNL1        0.0265
     67 H          13.6569    1.2250    0.0000 H       1  UNL1        0.0342
     68 H          12.8598    1.2250    0.0000 H       1  UNL1        0.0342
     69 H          15.3889    1.2250    0.0000 H       1  UNL1        0.0342
     70 H          14.5919    1.2250    0.0000 H       1  UNL1        0.0342
     71 H          24.0492    1.2250    0.0000 H       1  UNL1        0.0265
     72 H          23.2521    1.2250    0.0000 H       1  UNL1        0.0265
     73 H           4.9966    1.2250    0.0000 H       1  UNL1        0.0265
     74 H           4.1996    1.2250    0.0000 H       1  UNL1        0.0265
     75 H           3.3335   -0.2249    0.0000 H       1  UNL1        0.0265
     76 H           4.1306   -0.2249    0.0000 H       1  UNL1        0.0265
     77 H          24.1181   -0.2249    0.0000 H       1  UNL1        0.0265
     78 H          24.9152   -0.2249    0.0000 H       1  UNL1        0.0265
     79 H          25.7812    1.2250    0.0000 H       1  UNL1        0.0263
     80 H          24.9842    1.2250    0.0000 H       1  UNL1        0.0263
     81 H           3.2646    1.2250    0.0000 H       1  UNL1        0.0263
     82 H           2.4675    1.2250    0.0000 H       1  UNL1        0.0263
     83 H          25.9387   -0.2869    0.0000 H       1  UNL1        0.0230
     84 H          26.7856   -0.0600    0.0000 H       1  UNL1        0.0230
     85 H          26.5587    0.7869    0.0000 H       1  UNL1        0.0230
     86 H           1.6900    0.7869    0.0000 H       1  UNL1        0.0230
     87 H           1.4631   -0.0600    0.0000 H       1  UNL1        0.0230
     88 H           2.3100   -0.2869    0.0000 H       1  UNL1        0.0230
@<TRIPOS>BOND
     1     1    24    2
     2     2     5    1
     3     2     6    1
     4     2    33    1
     5     2    34    1
     6     3     4    1
     7     3     7    1
     8     3    31    1
     9     3    32    1
    10     4     9    1
    11     4    37    1
    12     4    38    1
    13     5     8    1
    14     5    35    1
    15     5    36    1
    16     6    10    1
    17     6    41    1
    18     6    42    1
    19     7    11    1
    20     7    39    1
    21     7    40    1
    22     8    13    1
    23     8    45    1
    24     8    46    1
    25     9    12    1
    26     9    43    1
    27     9    44    1
    28    10    14    1
    29    10    49    1
    30    10    50    1
    31    11    15    1
    32    11    47    1
    33    11    48    1
    34    12    17    1
    35    12    51    1
    36    12    52    1
    37    13    16    1
    38    13    53    1
    39    13    54    1
    40    14    18    1
    41    14    57    1
    42    14    58    1
    43    15    19    1
    44    15    55    1
    45    15    56    1
    46    16    21    1
    47    16    61    1
    48    16    62    1
    49    17    20    1
    50    17    59    1
    51    17    60    1
    52    18    22    1
    53    18    63    1
    54    18    64    1
    55    19    23    1
    56    19    65    1
    57    19    66    1
    58    20    24    1
    59    20    69    1
    60    20    70    1
    61    21    24    1
    62    21    67    1
    63    21    68    1
    64    22    25    1
    65    22    73    1
    66    22    74    1
    67    23    26    1
    68    23    71    1
    69    23    72    1
    70    25    28    1
    71    25    75    1
    72    25    76    1
    73    26    27    1
    74    26    77    1
    75    26    78    1
    76    27    29    1
    77    27    79    1
    78    27    80    1
    79    28    30    1
    80    28    81    1
    81    28    82    1
    82    29    83    1
    83    29    84    1
    84    29    85    1
    85    30    86    1
    86    30    87    1
    87    30    88    1
