@<TRIPOS>MOLECULE
IMPHY002212
 40 41 0 0 0
SMALL
GASTEIGER

@<TRIPOS>ATOM
      1 O           2.3100   -0.4532    0.0000 O.3     1  UNL1       -0.3813
      2 O           4.1760   -1.9532    0.0000 O.2     1  UNL1       -0.2938
      3 C           5.0420    0.5468    0.0000 C.3     1  UNL1       -0.0236
      4 C           5.0420   -0.4532    0.0000 C.3     1  UNL1        0.0324
      5 C           5.9360    1.0815    0.0000 C.3     1  UNL1       -0.0312
      6 C           5.9360   -0.9879    0.0000 C.3     1  UNL1       -0.0405
      7 C           4.1760    1.0468    0.0000 C.3     1  UNL1       -0.0458
      8 C           6.8421    0.5676    0.0000 C.3     1  UNL1       -0.0476
      9 C           6.8421   -0.4740    0.0000 C.3     1  UNL1       -0.0517
     10 C           4.1760   -0.9532    0.0000 C.2     1  UNL1        0.1704
     11 C           3.3100   -0.4532    0.0000 C.3     1  UNL1        0.1213
     12 C           3.3100    0.5468    0.0000 C.3     1  UNL1       -0.0170
     13 C           5.0420   -1.4532    0.0000 C.3     1  UNL1       -0.0525
     14 C           6.4260    1.9532    0.0000 C.3     1  UNL1       -0.0595
     15 C           5.4260    1.9416    0.0000 C.3     1  UNL1       -0.0595
     16 C           2.8100   -1.3192    0.0000 C.3     1  UNL1       -0.0291
     17 H           5.0373    1.1668    0.0000 H       1  UNL1        0.0315
     18 H           5.5314   -1.4576    0.0000 H       1  UNL1        0.0275
     19 H           6.3296   -1.4669    0.0000 H       1  UNL1        0.0275
     20 H           4.5746    1.5217    0.0000 H       1  UNL1        0.0269
     21 H           3.7775    1.5217    0.0000 H       1  UNL1        0.0269
     22 H           7.4529    0.4615    0.0000 H       1  UNL1        0.0271
     23 H           7.0511    1.1513    0.0000 H       1  UNL1        0.0271
     24 H           7.0511   -1.0577    0.0000 H       1  UNL1        0.0266
     25 H           7.4529   -0.3679    0.0000 H       1  UNL1        0.0266
     26 H           3.0980    1.1294    0.0000 H       1  UNL1        0.0297
     27 H           2.6994    0.4391    0.0000 H       1  UNL1        0.0297
     28 H           4.4220   -1.4532    0.0000 H       1  UNL1        0.0239
     29 H           5.0420   -2.0732    0.0000 H       1  UNL1        0.0239
     30 H           5.6620   -1.4532    0.0000 H       1  UNL1        0.0239
     31 H           5.9593    2.2578    0.0000 H       1  UNL1        0.0235
     32 H           5.1098    2.4750    0.0000 H       1  UNL1        0.0235
     33 H           6.9664    1.6494    0.0000 H       1  UNL1        0.0235
     34 H           6.7297    2.4937    0.0000 H       1  UNL1        0.0235
     35 H           4.8927    1.6254    0.0000 H       1  UNL1        0.0235
     36 H           5.8855    2.2570    0.0000 H       1  UNL1        0.0235
     37 H           2.2731   -1.0092    0.0000 H       1  UNL1        0.0261
     38 H           2.5000   -1.8562    0.0000 H       1  UNL1        0.0261
     39 H           3.3469   -1.6292    0.0000 H       1  UNL1        0.0261
     40 H           2.0000    0.0837    0.0000 H       1  UNL1        0.2107
@<TRIPOS>BOND
     1    11     1    1
     2     1    40    1
     3     2    10    2
     4     3     4    1
     5     3     5    1
     6     3     7    1
     7     3    17    1
     8     4     6    1
     9     4    10    1
    10     4    13    1
    11     5     8    1
    12     5    14    1
    13     5    15    1
    14     6     9    1
    15     6    18    1
    16     6    19    1
    17     7    12    1
    18     7    20    1
    19     7    21    1
    20     8     9    1
    21     8    22    1
    22     8    23    1
    23     9    24    1
    24     9    25    1
    25    10    11    1
    26    11    12    1
    27    11    16    1
    28    12    26    1
    29    12    27    1
    30    13    28    1
    31    13    29    1
    32    13    30    1
    33    14    33    1
    34    14    34    1
    35    14    36    1
    36    15    31    1
    37    15    32    1
    38    15    35    1
    39    16    37    1
    40    16    38    1
    41    16    39    1
