@<TRIPOS>MOLECULE
IMPHY015106
 110 111 0 0 0
SMALL
GASTEIGER

@<TRIPOS>ATOM
      1 O          12.2311   -2.2162    0.0000 O.3     1  UNL1       -0.3683
      2 O          14.1991   -2.9156    0.0000 O.3     1  UNL1       -0.3892
      3 O          10.2631   -2.9156    0.0000 O.3     1  UNL1       -0.3892
      4 O          29.0969    3.0139    0.0000 O.3     1  UNL1       -0.4542
      5 O          27.3174    3.1072    0.0000 O.2     1  UNL1       -0.2453
      6 C          13.0401   -1.6284    0.0000 C.3     1  UNL1        0.0850
      7 C          11.4221   -1.6284    0.0000 C.3     1  UNL1        0.0850
      8 C          12.7311   -0.6773    0.0000 C.3     1  UNL1       -0.0217
      9 C          11.7311   -0.6773    0.0000 C.3     1  UNL1       -0.0217
     10 C          13.9912   -1.9374    0.0000 C.3     1  UNL1        0.0813
     11 C          10.4710   -1.9374    0.0000 C.3     1  UNL1        0.0813
     12 C          14.7343   -1.2683    0.0000 C.3     1  UNL1       -0.0244
     13 C           9.7279   -1.2683    0.0000 C.3     1  UNL1       -0.0244
     14 C          15.6854   -1.5773    0.0000 C.3     1  UNL1       -0.0506
     15 C           8.7768   -1.5773    0.0000 C.3     1  UNL1       -0.0506
     16 C          16.4285   -0.9082    0.0000 C.3     1  UNL1       -0.0530
     17 C           8.0337   -0.9082    0.0000 C.3     1  UNL1       -0.0530
     18 C          17.3796   -1.2172    0.0000 C.3     1  UNL1       -0.0531
     19 C           7.0826   -1.2172    0.0000 C.3     1  UNL1       -0.0531
     20 C          18.1227   -0.5481    0.0000 C.3     1  UNL1       -0.0531
     21 C           6.3395   -0.5481    0.0000 C.3     1  UNL1       -0.0531
     22 C          19.0738   -0.8571    0.0000 C.3     1  UNL1       -0.0531
     23 C          19.8169   -0.1879    0.0000 C.3     1  UNL1       -0.0531
     24 C           5.3884   -0.8571    0.0000 C.3     1  UNL1       -0.0531
     25 C          20.7680   -0.4970    0.0000 C.3     1  UNL1       -0.0531
     26 C          21.5111    0.1722    0.0000 C.3     1  UNL1       -0.0531
     27 C           4.6453   -0.1879    0.0000 C.3     1  UNL1       -0.0531
     28 C          22.4622   -0.1368    0.0000 C.3     1  UNL1       -0.0531
     29 C          23.2053    0.5323    0.0000 C.3     1  UNL1       -0.0531
     30 C          24.1564    0.2233    0.0000 C.3     1  UNL1       -0.0531
     31 C           3.6942   -0.4970    0.0000 C.3     1  UNL1       -0.0533
     32 C          24.8995    0.8924    0.0000 C.3     1  UNL1       -0.0530
     33 C          25.8506    0.5834    0.0000 C.3     1  UNL1       -0.0528
     34 C           2.9511    0.1722    0.0000 C.3     1  UNL1       -0.0559
     35 C          26.5937    1.2525    0.0000 C.3     1  UNL1       -0.0488
     36 C          27.5448    0.9435    0.0000 C.3     1  UNL1       -0.0211
     37 C           2.0000   -0.1368    0.0000 C.3     1  UNL1       -0.0653
     38 C          28.2879    1.6126    0.0000 C.2     1  UNL1        0.0361
     39 C          29.2661    1.4047    0.0000 C.2     1  UNL1       -0.0343
     40 C          29.7661    2.2707    0.0000 C.3     1  UNL1        0.1195
     41 C          28.1834    2.6072    0.0000 C.2     1  UNL1        0.3355
     42 C          30.7606    2.3753    0.0000 C.3     1  UNL1       -0.0240
     43 H          13.1731   -2.4679    0.0000 H       1  UNL1        0.0622
     44 H          11.2891   -2.4679    0.0000 H       1  UNL1        0.0622
     45 H          13.3375   -0.5484    0.0000 H       1  UNL1        0.0292
     46 H          12.6663   -0.0607    0.0000 H       1  UNL1        0.0292
     47 H          11.7959   -0.0607    0.0000 H       1  UNL1        0.0292
     48 H          11.1246   -0.5484    0.0000 H       1  UNL1        0.0292
     49 H          14.5808   -2.1290    0.0000 H       1  UNL1        0.0619
     50 H           9.8814   -2.1290    0.0000 H       1  UNL1        0.0619
     51 H          15.0254   -0.7209    0.0000 H       1  UNL1        0.0291
     52 H          14.2457   -0.8866    0.0000 H       1  UNL1        0.0291
     53 H          10.2164   -0.8866    0.0000 H       1  UNL1        0.0291
     54 H           9.4368   -0.7209    0.0000 H       1  UNL1        0.0291
     55 H          15.3943   -2.1247    0.0000 H       1  UNL1        0.0266
     56 H          16.1739   -1.9590    0.0000 H       1  UNL1        0.0266
     57 H           8.2882   -1.9590    0.0000 H       1  UNL1        0.0266
     58 H           9.0679   -2.1247    0.0000 H       1  UNL1        0.0266
     59 H          16.7196   -0.3607    0.0000 H       1  UNL1        0.0265
     60 H          15.9399   -0.5265    0.0000 H       1  UNL1        0.0265
     61 H           8.5222   -0.5265    0.0000 H       1  UNL1        0.0265
     62 H           7.7426   -0.3607    0.0000 H       1  UNL1        0.0265
     63 H          14.7887   -3.1072    0.0000 H       1  UNL1        0.2099
     64 H           9.6734   -3.1072    0.0000 H       1  UNL1        0.2099
     65 H          17.0885   -1.7646    0.0000 H       1  UNL1        0.0265
     66 H          17.8681   -1.5989    0.0000 H       1  UNL1        0.0265
     67 H           6.5940   -1.5989    0.0000 H       1  UNL1        0.0265
     68 H           7.3737   -1.7646    0.0000 H       1  UNL1        0.0265
     69 H          18.4138   -0.0006    0.0000 H       1  UNL1        0.0265
     70 H          17.6341   -0.1663    0.0000 H       1  UNL1        0.0265
     71 H           6.8280   -0.1663    0.0000 H       1  UNL1        0.0265
     72 H           6.0484   -0.0006    0.0000 H       1  UNL1        0.0265
     73 H          18.7827   -1.4045    0.0000 H       1  UNL1        0.0265
     74 H          19.5623   -1.2388    0.0000 H       1  UNL1        0.0265
     75 H          20.1080    0.3595    0.0000 H       1  UNL1        0.0265
     76 H          19.3283    0.1938    0.0000 H       1  UNL1        0.0265
     77 H           4.8998   -1.2388    0.0000 H       1  UNL1        0.0265
     78 H           5.6795   -1.4045    0.0000 H       1  UNL1        0.0265
     79 H          20.4769   -1.0444    0.0000 H       1  UNL1        0.0265
     80 H          21.2565   -0.8787    0.0000 H       1  UNL1        0.0265
     81 H          21.8022    0.7196    0.0000 H       1  UNL1        0.0265
     82 H          21.0225    0.5539    0.0000 H       1  UNL1        0.0265
     83 H           5.1338    0.1938    0.0000 H       1  UNL1        0.0265
     84 H           4.3542    0.3595    0.0000 H       1  UNL1        0.0265
     85 H          22.1711   -0.6843    0.0000 H       1  UNL1        0.0265
     86 H          22.9507   -0.5186    0.0000 H       1  UNL1        0.0265
     87 H          23.4964    1.0797    0.0000 H       1  UNL1        0.0265
     88 H          22.7167    0.9140    0.0000 H       1  UNL1        0.0265
     89 H          23.8653   -0.3242    0.0000 H       1  UNL1        0.0265
     90 H          24.6449   -0.1584    0.0000 H       1  UNL1        0.0265
     91 H           3.2056   -0.8787    0.0000 H       1  UNL1        0.0265
     92 H           3.9853   -1.0444    0.0000 H       1  UNL1        0.0265
     93 H          25.1906    1.4398    0.0000 H       1  UNL1        0.0265
     94 H          24.4109    1.2741    0.0000 H       1  UNL1        0.0265
     95 H          25.5595    0.0360    0.0000 H       1  UNL1        0.0265
     96 H          26.3391    0.2017    0.0000 H       1  UNL1        0.0265
     97 H          26.8848    1.7999    0.0000 H       1  UNL1        0.0268
     98 H          26.1051    1.6342    0.0000 H       1  UNL1        0.0268
     99 H           3.4396    0.5539    0.0000 H       1  UNL1        0.0263
    100 H           2.6600    0.7196    0.0000 H       1  UNL1        0.0263
    101 H          27.2537    0.3961    0.0000 H       1  UNL1        0.0315
    102 H          28.0333    0.5618    0.0000 H       1  UNL1        0.0315
    103 H           1.8084    0.4528    0.0000 H       1  UNL1        0.0230
    104 H           1.4103   -0.3284    0.0000 H       1  UNL1        0.0230
    105 H           2.1916   -0.7265    0.0000 H       1  UNL1        0.0230
    106 H          29.5182    0.8383    0.0000 H       1  UNL1        0.0613
    107 H          29.9882    2.8496    0.0000 H       1  UNL1        0.0777
    108 H          30.8254    1.7587    0.0000 H       1  UNL1        0.0268
    109 H          31.3772    2.4401    0.0000 H       1  UNL1        0.0268
    110 H          30.6958    2.9919    0.0000 H       1  UNL1        0.0268
@<TRIPOS>BOND
     1     1     6    1
     2     1     7    1
     3    10     2    1
     4     2    63    1
     5    11     3    1
     6     3    64    1
     7     4    40    1
     8     4    41    1
     9     5    41    2
    10     6     8    1
    11     6    10    1
    12     6    43    1
    13     7     9    1
    14     7    11    1
    15     7    44    1
    16     8     9    1
    17     8    45    1
    18     8    46    1
    19     9    47    1
    20     9    48    1
    21    10    12    1
    22    10    49    1
    23    11    13    1
    24    11    50    1
    25    12    14    1
    26    12    51    1
    27    12    52    1
    28    13    15    1
    29    13    53    1
    30    13    54    1
    31    14    16    1
    32    14    55    1
    33    14    56    1
    34    15    17    1
    35    15    57    1
    36    15    58    1
    37    16    18    1
    38    16    59    1
    39    16    60    1
    40    17    19    1
    41    17    61    1
    42    17    62    1
    43    18    20    1
    44    18    65    1
    45    18    66    1
    46    19    21    1
    47    19    67    1
    48    19    68    1
    49    20    22    1
    50    20    69    1
    51    20    70    1
    52    21    24    1
    53    21    71    1
    54    21    72    1
    55    22    23    1
    56    22    73    1
    57    22    74    1
    58    23    25    1
    59    23    75    1
    60    23    76    1
    61    24    27    1
    62    24    77    1
    63    24    78    1
    64    25    26    1
    65    25    79    1
    66    25    80    1
    67    26    28    1
    68    26    81    1
    69    26    82    1
    70    27    31    1
    71    27    83    1
    72    27    84    1
    73    28    29    1
    74    28    85    1
    75    28    86    1
    76    29    30    1
    77    29    87    1
    78    29    88    1
    79    30    32    1
    80    30    89    1
    81    30    90    1
    82    31    34    1
    83    31    91    1
    84    31    92    1
    85    32    33    1
    86    32    93    1
    87    32    94    1
    88    33    35    1
    89    33    95    1
    90    33    96    1
    91    34    37    1
    92    34    99    1
    93    34   100    1
    94    35    36    1
    95    35    97    1
    96    35    98    1
    97    36    38    1
    98    36   101    1
    99    36   102    1
   100    37   103    1
   101    37   104    1
   102    37   105    1
   103    38    39    2
   104    38    41    1
   105    39    40    1
   106    39   106    1
   107    40    42    1
   108    40   107    1
   109    42   108    1
   110    42   109    1
   111    42   110    1
