@<TRIPOS>MOLECULE
IMPHY012565
 39 42 0 0 0
SMALL
GASTEIGER

@<TRIPOS>ATOM
      1 O           4.5594    0.9167    0.0000 O.3     1  UNL1       -0.4836
      2 O           7.3243    2.7856    0.0000 O.3     1  UNL1       -0.3876
      3 O           2.5369   -0.0853    0.0000 O.3     1  UNL1       -0.5033
      4 N           6.8964   -1.9881    0.0000 N.3     1  UNL1       -0.3011
      5 C           5.9202    0.0390    0.0000 C.3     1  UNL1        0.0558
      6 C           5.4050    0.9612    0.0000 C.3     1  UNL1        0.1161
      7 C           5.1373   -0.5853    0.0000 C.ar    1  UNL1        0.0158
      8 C           6.8964   -0.1838    0.0000 C.3     1  UNL1       -0.0235
      9 C           5.8648    1.8507    0.0000 C.3     1  UNL1        0.0151
     10 C           6.9457    0.1648    0.0000 C.2     1  UNL1       -0.0715
     11 C           4.2702   -0.0846    0.0000 C.ar    1  UNL1        0.1665
     12 C           7.3309   -1.0860    0.0000 C.3     1  UNL1        0.0001
     13 C           5.1373   -1.5866    0.0000 C.ar    1  UNL1       -0.0255
     14 C           6.8651    1.8973    0.0000 C.3     1  UNL1        0.0768
     15 C           5.9202   -2.2110    0.0000 C.3     1  UNL1        0.0242
     16 C           7.4055    1.0543    0.0000 C.2     1  UNL1       -0.0588
     17 C           3.4030   -0.5853    0.0000 C.ar    1  UNL1        0.1588
     18 C           4.2702   -2.0873    0.0000 C.ar    1  UNL1       -0.0534
     19 C           3.4030   -1.5866    0.0000 C.ar    1  UNL1       -0.0162
     20 C           7.4598   -2.8144    0.0000 C.3     1  UNL1       -0.0124
     21 H           4.9441    1.6754    0.0000 H       1  UNL1        0.0746
     22 H           7.5009   -0.0458    0.0000 H       1  UNL1        0.0290
     23 H           6.8964    0.4362    0.0000 H       1  UNL1        0.0290
     24 H           5.9440    2.4657    0.0000 H       1  UNL1        0.0329
     25 H           5.2730    2.0355    0.0000 H       1  UNL1        0.0329
     26 H           7.2998   -0.3442    0.0000 H       1  UNL1        0.0580
     27 H           7.8156   -1.4725    0.0000 H       1  UNL1        0.0427
     28 H           7.8156   -0.6994    0.0000 H       1  UNL1        0.0427
     29 H           6.5305    2.4192    0.0000 H       1  UNL1        0.0639
     30 H           5.4355   -2.5975    0.0000 H       1  UNL1        0.0476
     31 H           6.1892   -2.7696    0.0000 H       1  UNL1        0.0476
     32 H           8.0248    1.0831    0.0000 H       1  UNL1        0.0595
     33 H           4.2702   -2.7073    0.0000 H       1  UNL1        0.0622
     34 H           2.8660   -1.8966    0.0000 H       1  UNL1        0.0655
     35 H           6.9475   -3.1636    0.0000 H       1  UNL1        0.0391
     36 H           7.8090   -3.3266    0.0000 H       1  UNL1        0.0391
     37 H           7.9720   -2.4651    0.0000 H       1  UNL1        0.0391
     38 H           7.9437    2.8144    0.0000 H       1  UNL1        0.2102
     39 H           2.0000   -0.3953    0.0000 H       1  UNL1        0.2923
@<TRIPOS>BOND
     1     1     6    1
     2     1    11    1
     3    14     2    1
     4     2    38    1
     5     3    17    1
     6     3    39    1
     7     4    12    1
     8     4    15    1
     9     4    20    1
    10     5     6    1
    11     5     7    1
    12     5     8    1
    13     5    10    1
    14     6     9    1
    15     6    21    1
    16     7    11   ar
    17     7    13   ar
    18     8    12    1
    19     8    22    1
    20     8    23    1
    21     9    14    1
    22     9    24    1
    23     9    25    1
    24    10    16    2
    25    10    26    1
    26    11    17   ar
    27    12    27    1
    28    12    28    1
    29    13    15    1
    30    13    18   ar
    31    14    16    1
    32    14    29    1
    33    15    30    1
    34    15    31    1
    35    16    32    1
    36    17    19   ar
    37    18    19   ar
    38    18    33    1
    39    19    34    1
    40    20    35    1
    41    20    36    1
    42    20    37    1
