@<TRIPOS>MOLECULE
IMPHY014613
 65 70 0 0 0
SMALL
GASTEIGER

@<TRIPOS>ATOM
      1 O           5.6604   -1.5203    0.0000 O.3     1  UNL1       -0.3516
      2 O           8.3550   -2.0619    0.0000 O.3     1  UNL1       -0.4539
      3 O           4.8225   -2.0480    0.0000 O.3     1  UNL1       -0.3911
      4 O           2.6697    1.8740    0.0000 O.3     1  UNL1       -0.4553
      5 O           7.4490   -3.5827    0.0000 O.2     1  UNL1       -0.2478
      6 O          10.7858   -0.1556    0.0000 O.2     1  UNL1       -0.4706
      7 O           2.7595    3.5827    0.0000 O.2     1  UNL1       -0.2456
      8 C           6.5709   -1.0135    0.0000 C.3     1  UNL1        0.1240
      9 C           5.7049   -0.5135    0.0000 C.3     1  UNL1        0.0301
     10 C           7.4369   -0.5135    0.0000 C.3     1  UNL1        0.0419
     11 C           5.7049    0.4865    0.0000 C.3     1  UNL1       -0.0213
     12 C           6.5548   -2.0550    0.0000 C.3     1  UNL1        0.1857
     13 C           4.8109    1.0212    0.0000 C.3     1  UNL1       -0.0036
     14 C           4.8109   -1.0481    0.0000 C.3     1  UNL1        0.0640
     15 C           7.4369    0.4865    0.0000 C.3     1  UNL1       -0.0409
     16 C           6.5709    0.9865    0.0000 C.3     1  UNL1       -0.0480
     17 C           3.9049    0.5074    0.0000 C.3     1  UNL1        0.0099
     18 C           8.3469   -1.0203    0.0000 C.3     1  UNL1        0.1391
     19 C           3.9049   -0.5343    0.0000 C.3     1  UNL1       -0.0190
     20 C           6.3550   -1.6392    0.0000 C.3     1  UNL1       -0.0542
     21 C           8.3029   -0.0135    0.0000 C.3     1  UNL1       -0.0531
     22 C           7.4529   -2.5827    0.0000 C.2     1  UNL1        0.3398
     23 C           2.9594    0.8943    0.0000 C.3     1  UNL1        0.1119
     24 C           5.6808    1.5145    0.0000 C.3     1  UNL1       -0.0554
     25 C           4.9642    2.0313    0.0000 C.2     1  UNL1       -0.0707
     26 C           9.2071   -0.5103    0.0000 C.ar    1  UNL1        0.0310
     27 C           2.0000    0.6121    0.0000 C.3     1  UNL1       -0.0248
     28 C           2.5819   -0.0317    0.0000 C.3     1  UNL1       -0.0248
     29 C           4.2721    2.7827    0.0000 C.2     1  UNL1        0.0191
     30 C           9.3001    0.4853    0.0000 C.ar    1  UNL1       -0.0172
     31 C           3.2528    2.7129    0.0000 C.2     1  UNL1        0.3322
     32 C          10.1253   -0.9065    0.0000 C.ar    1  UNL1        0.0984
     33 C          10.2758    0.7046    0.0000 C.ar    1  UNL1        0.0921
     34 H           6.4410    0.0615    0.0000 H       1  UNL1        0.0316
     35 H           6.1214   -2.7862    0.0000 H       1  UNL1        0.0743
     36 H           5.3520   -1.3509    0.0000 H       1  UNL1        0.0600
     37 H           8.0475    0.3789    0.0000 H       1  UNL1        0.0273
     38 H           7.6490    1.0692    0.0000 H       1  UNL1        0.0273
     39 H           6.9694    1.4615    0.0000 H       1  UNL1        0.0269
     40 H           6.1724    1.4615    0.0000 H       1  UNL1        0.0269
     41 H           3.1991    0.0336    0.0000 H       1  UNL1        0.0348
     42 H           8.8868   -1.3251    0.0000 H       1  UNL1        0.0793
     43 H           3.2940   -0.4282    0.0000 H       1  UNL1        0.0294
     44 H           3.6958   -1.1180    0.0000 H       1  UNL1        0.0294
     45 H           5.8181   -1.9493    0.0000 H       1  UNL1        0.0237
     46 H           6.6650   -2.1761    0.0000 H       1  UNL1        0.0237
     47 H           6.8919   -1.3292    0.0000 H       1  UNL1        0.0237
     48 H           8.6130   -0.5504    0.0000 H       1  UNL1        0.0237
     49 H           8.8399    0.2965    0.0000 H       1  UNL1        0.0237
     50 H           7.9930    0.5235    0.0000 H       1  UNL1        0.0237
     51 H           5.9866    0.9752    0.0000 H       1  UNL1        0.0238
     52 H           6.2201    1.8204    0.0000 H       1  UNL1        0.0238
     53 H           5.3749    2.0538    0.0000 H       1  UNL1        0.0238
     54 H           5.5571    2.2126    0.0000 H       1  UNL1        0.0580
     55 H           4.2892   -2.3642    0.0000 H       1  UNL1        0.2098
     56 H           1.8250    1.2069    0.0000 H       1  UNL1        0.0268
     57 H           1.4052    0.4371    0.0000 H       1  UNL1        0.0268
     58 H           2.1750    0.0173    0.0000 H       1  UNL1        0.0268
     59 H           2.0077    0.2023    0.0000 H       1  UNL1        0.0268
     60 H           2.3478   -0.6058    0.0000 H       1  UNL1        0.0268
     61 H           3.1560   -0.2658    0.0000 H       1  UNL1        0.0268
     62 H           4.5015    3.3587    0.0000 H       1  UNL1        0.0686
     63 H           8.8346    0.8948    0.0000 H       1  UNL1        0.0653
     64 H          10.2612   -1.5114    0.0000 H       1  UNL1        0.1033
     65 H          10.5214    1.2738    0.0000 H       1  UNL1        0.1029
@<TRIPOS>BOND
     1     8     1    1
     2     1    12    1
     3     2    18    1
     4     2    22    1
     5    14     3    1
     6     3    55    1
     7     4    23    1
     8     4    31    1
     9     5    22    2
    10     6    32   ar
    11     6    33   ar
    12     7    31    2
    13     8     9    1
    14     8    10    1
    15     8    12    1
    16     9    11    1
    17     9    14    1
    18     9    20    1
    19    10    15    1
    20    10    18    1
    21    10    21    1
    22    11    13    1
    23    11    16    1
    24    11    34    1
    25    12    22    1
    26    12    35    1
    27    13    17    1
    28    13    24    1
    29    13    25    1
    30    14    19    1
    31    14    36    1
    32    15    16    1
    33    15    37    1
    34    15    38    1
    35    16    39    1
    36    16    40    1
    37    17    19    1
    38    17    23    1
    39    17    41    1
    40    18    26    1
    41    18    42    1
    42    19    43    1
    43    19    44    1
    44    20    45    1
    45    20    46    1
    46    20    47    1
    47    21    48    1
    48    21    49    1
    49    21    50    1
    50    23    27    1
    51    23    28    1
    52    24    51    1
    53    24    52    1
    54    24    53    1
    55    25    29    2
    56    25    54    1
    57    26    30   ar
    58    26    32   ar
    59    27    56    1
    60    27    57    1
    61    27    58    1
    62    28    59    1
    63    28    60    1
    64    28    61    1
    65    29    31    1
    66    29    62    1
    67    30    33   ar
    68    30    63    1
    69    32    64    1
    70    33    65    1
