@<TRIPOS>MOLECULE
IMPHY008717
 44 47 0 0 0
SMALL
GASTEIGER

@<TRIPOS>ATOM
      1 O           4.8885    0.9167    0.0000 O.3     1  UNL1       -0.4839
      2 O           7.6534    2.7856    0.0000 O.3     1  UNL1       -0.3917
      3 O           2.8660   -0.0853    0.0000 O.3     1  UNL1       -0.4914
      4 N           7.2255   -1.9881    0.0000 N.3     1  UNL1       -0.3011
      5 C           6.2493    0.0390    0.0000 C.3     1  UNL1        0.0378
      6 C           5.7341    0.9612    0.0000 C.3     1  UNL1        0.1124
      7 C           7.2748    0.1648    0.0000 C.3     1  UNL1       -0.0375
      8 C           5.4664   -0.5853    0.0000 C.ar    1  UNL1        0.0120
      9 C           7.2255   -0.1838    0.0000 C.3     1  UNL1       -0.0270
     10 C           6.1939    1.8507    0.0000 C.3     1  UNL1        0.0112
     11 C           7.7346    1.0543    0.0000 C.3     1  UNL1       -0.0258
     12 C           7.1942    1.8973    0.0000 C.3     1  UNL1        0.0587
     13 C           4.5992   -0.0846    0.0000 C.ar    1  UNL1        0.1664
     14 C           7.6600   -1.0860    0.0000 C.3     1  UNL1       -0.0001
     15 C           5.4664   -1.5866    0.0000 C.ar    1  UNL1       -0.0259
     16 C           6.2493   -2.2110    0.0000 C.3     1  UNL1        0.0241
     17 C           3.7320   -0.5853    0.0000 C.ar    1  UNL1        0.1618
     18 C           4.5992   -2.0873    0.0000 C.ar    1  UNL1       -0.0534
     19 C           3.7320   -1.5866    0.0000 C.ar    1  UNL1       -0.0160
     20 C           7.7889   -2.8144    0.0000 C.3     1  UNL1       -0.0124
     21 C           2.0000   -0.5853    0.0000 C.3     1  UNL1        0.0790
     22 H           5.2732    1.6754    0.0000 H       1  UNL1        0.0743
     23 H           7.2266   -0.4534    0.0000 H       1  UNL1        0.0276
     24 H           7.8711   -0.0050    0.0000 H       1  UNL1        0.0276
     25 H           7.8300   -0.0458    0.0000 H       1  UNL1        0.0287
     26 H           7.2255    0.4362    0.0000 H       1  UNL1        0.0287
     27 H           6.2731    2.4657    0.0000 H       1  UNL1        0.0326
     28 H           5.6021    2.0355    0.0000 H       1  UNL1        0.0326
     29 H           8.2276    0.6782    0.0000 H       1  UNL1        0.0290
     30 H           8.1905    1.4744    0.0000 H       1  UNL1        0.0290
     31 H           6.8596    2.4192    0.0000 H       1  UNL1        0.0594
     32 H           8.1447   -1.4725    0.0000 H       1  UNL1        0.0427
     33 H           8.1447   -0.6994    0.0000 H       1  UNL1        0.0427
     34 H           5.7646   -2.5975    0.0000 H       1  UNL1        0.0476
     35 H           6.5183   -2.7696    0.0000 H       1  UNL1        0.0476
     36 H           4.5992   -2.7073    0.0000 H       1  UNL1        0.0622
     37 H           8.2728    2.8144    0.0000 H       1  UNL1        0.2098
     38 H           3.1951   -1.8966    0.0000 H       1  UNL1        0.0655
     39 H           7.2766   -3.1636    0.0000 H       1  UNL1        0.0391
     40 H           8.1381   -3.3266    0.0000 H       1  UNL1        0.0391
     41 H           8.3011   -2.4651    0.0000 H       1  UNL1        0.0391
     42 H           1.6900   -0.0483    0.0000 H       1  UNL1        0.0660
     43 H           1.4631   -0.8953    0.0000 H       1  UNL1        0.0660
     44 H           2.3100   -1.1222    0.0000 H       1  UNL1        0.0660
@<TRIPOS>BOND
     1     1     6    1
     2     1    13    1
     3    12     2    1
     4     2    37    1
     5     3    17    1
     6     3    21    1
     7     4    14    1
     8     4    16    1
     9     4    20    1
    10     5     6    1
    11     5     7    1
    12     5     8    1
    13     5     9    1
    14     6    10    1
    15     6    22    1
    16     7    11    1
    17     7    23    1
    18     7    24    1
    19     8    13   ar
    20     8    15   ar
    21     9    14    1
    22     9    25    1
    23     9    26    1
    24    10    12    1
    25    10    27    1
    26    10    28    1
    27    11    12    1
    28    11    29    1
    29    11    30    1
    30    12    31    1
    31    13    17   ar
    32    14    32    1
    33    14    33    1
    34    15    16    1
    35    15    18   ar
    36    16    34    1
    37    16    35    1
    38    17    19   ar
    39    18    19   ar
    40    18    36    1
    41    19    38    1
    42    20    39    1
    43    20    40    1
    44    20    41    1
    45    21    42    1
    46    21    43    1
    47    21    44    1
