@<TRIPOS>MOLECULE
IMPHY013690
 74 79 0 0 0
SMALL
GASTEIGER

@<TRIPOS>ATOM
      1 O           6.3640    3.7929    0.0000 O.3     1  UNL1       -0.3673
      2 O           3.8950    4.1258    0.0000 O.3     1  UNL1       -0.3824
      3 O           4.3024    5.3420    0.0000 O.3     1  UNL1       -0.3862
      4 O           3.1286   -1.1711    0.0000 O.3     1  UNL1       -0.3844
      5 O           4.5338    2.1918    0.0000 O.2     1  UNL1       -0.2966
      6 O           5.0051   -2.0446    0.0000 O.3     1  UNL1       -0.3823
      7 O           4.7290   -3.5250    0.0000 O.3     1  UNL1       -0.4548
      8 O           5.4484   -5.1006    0.0000 O.2     1  UNL1       -0.2453
      9 C           3.8950    3.1258    0.0000 C.3     1  UNL1        0.0632
     10 C           3.8950    2.1258    0.0000 C.3     1  UNL1       -0.0195
     11 C           4.7610    3.6258    0.0000 C.3     1  UNL1        0.1323
     12 C           4.7610    1.6258    0.0000 C.3     1  UNL1       -0.0130
     13 C           5.6270    3.1258    0.0000 C.3     1  UNL1        0.0918
     14 C           3.8790    0.0566    0.0000 C.3     1  UNL1        0.0210
     15 C           5.6270    2.1258    0.0000 C.3     1  UNL1       -0.0169
     16 C           4.7771    0.5843    0.0000 C.2     1  UNL1       -0.0612
     17 C           2.9850    1.6190    0.0000 C.3     1  UNL1       -0.0478
     18 C           4.9702    4.5977    0.0000 C.3     1  UNL1        0.1136
     19 C           4.1047   -0.9540    0.0000 C.3     1  UNL1        0.1101
     20 C           2.9770    0.5774    0.0000 C.3     1  UNL1       -0.0409
     21 C           5.9589    4.7007    0.0000 C.3     1  UNL1        0.0944
     22 C           4.8988    3.1227    0.0000 C.2     1  UNL1        0.1449
     23 C           5.6969    3.7317    0.0000 C.3     1  UNL1        0.0353
     24 C           3.1890    3.8341    0.0000 C.3     1  UNL1       -0.0497
     25 C           5.1354   -1.0534    0.0000 C.3     1  UNL1       -0.0018
     26 C           5.5501   -0.1046    0.0000 C.2     1  UNL1       -0.0810
     27 C           4.0096   -1.9494    0.0000 C.3     1  UNL1        0.1298
     28 C           2.8956   -0.1246    0.0000 C.3     1  UNL1       -0.0531
     29 C           3.9145   -2.9449    0.0000 C.3     1  UNL1        0.1380
     30 C           3.0141   -1.8543    0.0000 C.3     1  UNL1       -0.0298
     31 C           3.0048   -3.3602    0.0000 C.3     1  UNL1        0.0089
     32 C           2.9097   -4.3557    0.0000 C.2     1  UNL1       -0.0594
     33 C           4.6339   -4.5205    0.0000 C.2     1  UNL1        0.3352
     34 C           3.7242   -4.9358    0.0000 C.2     1  UNL1        0.0326
     35 C           2.0000   -4.7710    0.0000 C.3     1  UNL1       -0.0429
     36 C           3.6291   -5.9313    0.0000 C.3     1  UNL1       -0.0330
     37 H           3.3604    2.4400    0.0000 H       1  UNL1        0.0317
     38 H           5.3003    1.3200    0.0000 H       1  UNL1        0.0350
     39 H           6.1938    2.8744    0.0000 H       1  UNL1        0.0626
     40 H           5.8391    1.5432    0.0000 H       1  UNL1        0.0297
     41 H           6.2376    2.2335    0.0000 H       1  UNL1        0.0297
     42 H           2.7804    2.2043    0.0000 H       1  UNL1        0.0269
     43 H           2.3733    1.5176    0.0000 H       1  UNL1        0.0269
     44 H           5.1932    5.1762    0.0000 H       1  UNL1        0.0649
     45 H           2.3669    0.6882    0.0000 H       1  UNL1        0.0275
     46 H           2.7634   -0.0047    0.0000 H       1  UNL1        0.0275
     47 H           6.2689    5.2377    0.0000 H       1  UNL1        0.0627
     48 H           5.9074    3.1485    0.0000 H       1  UNL1        0.0368
     49 H           6.3164    3.7572    0.0000 H       1  UNL1        0.0368
     50 H           3.6281    4.2718    0.0000 H       1  UNL1        0.0240
     51 H           2.7513    4.2732    0.0000 H       1  UNL1        0.0240
     52 H           2.7499    3.3963    0.0000 H       1  UNL1        0.0240
     53 H           5.0114   -1.6608    0.0000 H       1  UNL1        0.0336
     54 H           5.7265   -1.2406    0.0000 H       1  UNL1        0.0336
     55 H           6.1558    0.0280    0.0000 H       1  UNL1        0.0573
     56 H           2.7832    0.4851    0.0000 H       1  UNL1        0.0239
     57 H           2.2858   -0.2370    0.0000 H       1  UNL1        0.0239
     58 H           3.0079   -0.7343    0.0000 H       1  UNL1        0.0239
     59 H           3.8950    4.7458    0.0000 H       1  UNL1        0.2104
     60 H           4.4950    5.9313    0.0000 H       1  UNL1        0.2100
     61 H           4.4785   -2.6874    0.0000 H       1  UNL1        0.0767
     62 H           2.5784   -0.8852    0.0000 H       1  UNL1        0.2103
     63 H           3.0731   -1.2371    0.0000 H       1  UNL1        0.0259
     64 H           2.3970   -1.7953    0.0000 H       1  UNL1        0.0259
     65 H           2.9552   -2.4715    0.0000 H       1  UNL1        0.0259
     66 H           5.2626   -2.6086    0.0000 H       1  UNL1        0.2104
     67 H           2.8491   -2.7601    0.0000 H       1  UNL1        0.0347
     68 H           2.3868   -3.4093    0.0000 H       1  UNL1        0.0347
     69 H           1.7425   -4.2071    0.0000 H       1  UNL1        0.0275
     70 H           1.4360   -5.0286    0.0000 H       1  UNL1        0.0275
     71 H           2.2575   -5.3350    0.0000 H       1  UNL1        0.0275
     72 H           3.0119   -5.8723    0.0000 H       1  UNL1        0.0280
     73 H           3.5701   -6.5485    0.0000 H       1  UNL1        0.0280
     74 H           4.2462   -5.9903    0.0000 H       1  UNL1        0.0280
@<TRIPOS>BOND
     1     1    13    1
     2     1    21    1
     3     2    11    1
     4     2    59    1
     5     3    18    1
     6     3    60    1
     7     4    19    1
     8     4    62    1
     9     5    22    2
    10     6    27    1
    11     6    66    1
    12     7    29    1
    13     7    33    1
    14     8    33    2
    15     9    10    1
    16     9    11    1
    17     9    22    1
    18     9    24    1
    19    10    12    1
    20    10    17    1
    21    10    37    1
    22    11    13    1
    23    11    18    1
    24    12    15    1
    25    12    16    1
    26    12    38    1
    27    13    15    1
    28    13    39    1
    29    14    16    1
    30    14    19    1
    31    14    20    1
    32    14    28    1
    33    15    40    1
    34    15    41    1
    35    16    26    2
    36    17    20    1
    37    17    42    1
    38    17    43    1
    39    18    21    1
    40    18    44    1
    41    19    25    1
    42    19    27    1
    43    20    45    1
    44    20    46    1
    45    21    23    1
    46    21    47    1
    47    22    23    1
    48    23    48    1
    49    23    49    1
    50    24    50    1
    51    24    51    1
    52    24    52    1
    53    25    26    1
    54    25    53    1
    55    25    54    1
    56    26    55    1
    57    27    29    1
    58    27    30    1
    59    28    56    1
    60    28    57    1
    61    28    58    1
    62    29    31    1
    63    29    61    1
    64    30    63    1
    65    30    64    1
    66    30    65    1
    67    31    32    1
    68    31    67    1
    69    31    68    1
    70    32    34    2
    71    32    35    1
    72    33    34    1
    73    34    36    1
    74    35    69    1
    75    35    70    1
    76    35    71    1
    77    36    72    1
    78    36    73    1
    79    36    74    1
