@<TRIPOS>MOLECULE
IMPHY003279
 39 41 0 0 0
SMALL
GASTEIGER

@<TRIPOS>ATOM
      1 O           4.6660   -0.9938    0.0000 O.2     1  UNL1       -0.4471
      2 O           6.4144    2.0408    0.0000 O.3     1  UNL1       -0.5056
      3 O           6.4144   -2.0284    0.0000 O.3     1  UNL1       -0.5033
      4 O           4.6660    2.0062    0.0000 O.2     1  UNL1       -0.2863
      5 O           2.9176   -2.0284    0.0000 O.3     1  UNL1       -0.5033
      6 C           8.1962    1.0304    0.0000 C.3     1  UNL1        0.0114
      7 C           7.3321    0.5270    0.0000 C.ar    1  UNL1        0.0078
      8 C           6.4260    1.0409    0.0000 C.ar    1  UNL1        0.1354
      9 C           5.5321    0.5062    0.0000 C.ar    1  UNL1        0.1098
     10 C           8.6995    0.1663    0.0000 C.3     1  UNL1       -0.0522
     11 C           7.6928    1.8944    0.0000 C.3     1  UNL1       -0.0522
     12 C           7.3321   -0.5146    0.0000 C.ar    1  UNL1       -0.0090
     13 C           5.5321   -0.4938    0.0000 C.ar    1  UNL1        0.1841
     14 C           9.0602    1.5337    0.0000 C.2     1  UNL1       -0.0811
     15 C           6.4260   -1.0284    0.0000 C.ar    1  UNL1        0.1603
     16 C           4.6660    1.0062    0.0000 C.ar    1  UNL1        0.2040
     17 C           3.8000    0.5062    0.0000 C.ar    1  UNL1        0.0684
     18 C           3.8000   -0.4938    0.0000 C.ar    1  UNL1        0.1806
     19 C           2.9061    1.0409    0.0000 C.ar    1  UNL1       -0.0471
     20 C           2.9061   -1.0284    0.0000 C.ar    1  UNL1        0.1598
     21 C           9.9282    1.0370    0.0000 C.2     1  UNL1       -0.1018
     22 C           2.0000    0.5270    0.0000 C.ar    1  UNL1       -0.0574
     23 C           2.0000   -0.5146    0.0000 C.ar    1  UNL1       -0.0165
     24 H           8.1638   -0.1458    0.0000 H       1  UNL1        0.0241
     25 H           9.0116   -0.3695    0.0000 H       1  UNL1        0.0241
     26 H           8.2286    2.2065    0.0000 H       1  UNL1        0.0241
     27 H           7.3808    2.4302    0.0000 H       1  UNL1        0.0241
     28 H           7.1571    1.5824    0.0000 H       1  UNL1        0.0241
     29 H           9.2352    0.4783    0.0000 H       1  UNL1        0.0241
     30 H           7.8678   -0.8267    0.0000 H       1  UNL1        0.0659
     31 H           9.0579    2.1537    0.0000 H       1  UNL1        0.0575
     32 H           2.9132    1.6608    0.0000 H       1  UNL1        0.0626
     33 H           5.8740    2.3446    0.0000 H       1  UNL1        0.2922
     34 H           9.9306    0.4170    0.0000 H       1  UNL1        0.0532
     35 H          10.4639    1.3491    0.0000 H       1  UNL1        0.0532
     36 H           1.4643    0.8391    0.0000 H       1  UNL1        0.0619
     37 H           1.4643   -0.8267    0.0000 H       1  UNL1        0.0655
     38 H           6.9478   -2.3446    0.0000 H       1  UNL1        0.2923
     39 H           2.3843   -2.3446    0.0000 H       1  UNL1        0.2923
@<TRIPOS>BOND
     1     1    13   ar
     2     1    18   ar
     3     2     8    1
     4     2    33    1
     5     3    15    1
     6     3    38    1
     7     4    16    2
     8     5    20    1
     9     5    39    1
    10     6     7    1
    11     6    10    1
    12     6    11    1
    13     6    14    1
    14     7     8   ar
    15     7    12   ar
    16     8     9   ar
    17     9    13   ar
    18     9    16   ar
    19    10    24    1
    20    10    25    1
    21    10    29    1
    22    11    26    1
    23    11    27    1
    24    11    28    1
    25    12    15   ar
    26    12    30    1
    27    13    15   ar
    28    14    21    2
    29    14    31    1
    30    16    17   ar
    31    17    18   ar
    32    17    19   ar
    33    18    20   ar
    34    19    22   ar
    35    19    32    1
    36    20    23   ar
    37    21    34    1
    38    21    35    1
    39    22    23   ar
    40    22    36    1
    41    23    37    1
