@<TRIPOS>MOLECULE
IMPHY010294
 37 42 0 0 0
SMALL
GASTEIGER

@<TRIPOS>ATOM
      1 N          10.1144   -3.3084    0.0000 N.3     1  UNL1       -0.2823
      2 C          11.2622   -3.9431    0.0000 C.3     1  UNL1        0.0716
      3 C          12.3696   -3.3084    0.0000 C.3     1  UNL1        0.0185
      4 C          12.3696   -1.9986    0.0000 C.3     1  UNL1        0.0353
      5 C          11.2622   -1.3369    0.0000 C.3     1  UNL1        0.1615
      6 C          10.1144   -1.9986    0.0000 C.3     1  UNL1        0.0540
      7 C           7.8863   -1.9986    0.0000 C.3     1  UNL1        0.0094
      8 C           7.8863   -3.3084    0.0000 C.3     1  UNL1       -0.0094
      9 C           9.0341   -3.9431    0.0000 C.3     1  UNL1        0.0225
     10 C           9.0341   -5.1585    0.0000 C.3     1  UNL1        0.0061
     11 C           6.7654   -5.1585    0.0000 C.3     1  UNL1       -0.0220
     12 C           6.7654   -3.9431    0.0000 C.3     1  UNL1       -0.0061
     13 C           5.6311   -3.3084    0.0000 C.3     1  UNL1       -0.0009
     14 C           4.4833   -3.9431    0.0000 C.3     1  UNL1       -0.0043
     15 C           4.4833   -5.1585    0.0000 C.3     1  UNL1       -0.0230
     16 C           3.3760   -5.8202    0.0000 C.3     1  UNL1       -0.0069
     17 C           3.3760   -7.1165    0.0000 C.3     1  UNL1       -0.0180
     18 C           2.2416   -7.7782    0.0000 C.3     1  UNL1        0.0151
     19 C           1.1208   -7.1165    0.0000 C.3     1  UNL1        0.0915
     20 C           1.1208   -5.8202    0.0000 C.3     1  UNL1        0.0190
     21 C           2.2416   -5.1585    0.0000 C.3     1  UNL1        0.0009
     22 C           5.6311   -5.8202    0.0000 C.3     1  UNL1       -0.0258
     23 C           5.6311   -7.1165    0.0000 C.3     1  UNL1       -0.0048
     24 C           4.4833   -7.7782    0.0000 C.3     1  UNL1       -0.0042
     25 C          13.5039   -3.9431    0.0000 C.3     1  UNL1        0.0015
     26 O          11.2622    0.0000    0.0000 O.3     1  UNL1       -0.2221
     27 C           6.9815   -1.0668    0.0000 C.3     1  UNL1        0.0008
     28 C           6.7654   -2.6603    0.0000 C.3     1  UNL1       -0.0006
     29 C           3.3760   -4.5103    0.0000 C.3     1  UNL1       -0.0006
     30 N           0.0000   -7.7782    0.0000 N.3     1  UNL1       -0.1329
     31 H           4.4968   -6.4143    0.0000 H       1  UNL1        0.0315
     32 H           5.6446   -4.5508    0.0000 H       1  UNL1        0.0313
     33 H           6.7654   -6.4413    0.0000 H       1  UNL1        0.0316
     34 H           7.8728   -4.3753    0.0000 H       1  UNL1        0.0328
     35 H           9.0341   -2.7413    0.0000 H       1  UNL1        0.0472
     36 H          10.1009   -0.7427    0.0000 H       1  UNL1        0.0499
     37 H           3.3625   -8.4129    0.0000 H       1  UNL1        0.0319
@<TRIPOS>BOND
     1     1     9    1
     2     1     6    1
     3     1     2    1
     4     2     3    1
     5     3     4    1
     6     3    25    1
     7     4     5    1
     8     5     6    1
     9     5    26    1
    10     6     7    1
    11     6    36    1
    12     7     8    1
    13     7    27    1
    14     8    12    1
    15     8     9    1
    16     8    34    1
    17     9    10    1
    18     9    35    1
    19    10    11    1
    20    11    22    1
    21    11    12    1
    22    11    33    1
    23    12    13    1
    24    12    28    1
    25    13    14    1
    26    14    15    1
    27    15    16    1
    28    15    22    1
    29    15    31    1
    30    16    21    1
    31    16    17    1
    32    16    29    1
    33    17    18    1
    34    17    24    1
    35    17    37    1
    36    18    19    1
    37    19    20    1
    38    19    30    1
    39    20    21    1
    40    22    23    1
    41    22    32    1
    42    23    24    1
