@<TRIPOS>MOLECULE
IMPHY005341
 100 105 0 0 0
SMALL
GASTEIGER

@<TRIPOS>ATOM
      1 O           8.1837    4.8843    0.0000 O.3     1  UNL1       -0.4641
      2 O          11.6478   -5.1934    0.0000 O.3     1  UNL1       -0.4641
      3 O           9.4438    3.6243    0.0000 O.2     1  UNL1       -0.2505
      4 O          12.9079   -3.9333    0.0000 O.2     1  UNL1       -0.2505
      5 O          11.1478    2.3455    0.0000 O.3     1  UNL1       -0.4914
      6 O           7.6837   -2.6545    0.0000 O.3     1  UNL1       -0.4914
      7 O          11.1478    0.3455    0.0000 O.3     1  UNL1       -0.5029
      8 O           7.6837   -0.6545    0.0000 O.3     1  UNL1       -0.5029
      9 O           4.8532    6.9188    0.0000 O.3     1  UNL1       -0.4914
     10 O           5.9993   -4.6535    0.0000 O.3     1  UNL1       -0.4914
     11 O           2.9511    6.3008    0.0000 O.3     1  UNL1       -0.4915
     12 O           6.4152   -6.6098    0.0000 O.3     1  UNL1       -0.4915
     13 C           6.8747    3.9333    0.0000 C.3     1  UNL1        0.0105
     14 C          10.3388   -4.2423    0.0000 C.3     1  UNL1        0.0105
     15 C           7.6837    3.3455    0.0000 C.3     1  UNL1        0.0666
     16 C          11.1478   -3.6545    0.0000 C.3     1  UNL1        0.0666
     17 C           7.1837    4.8843    0.0000 C.3     1  UNL1        0.0963
     18 C          10.6478   -5.1934    0.0000 C.3     1  UNL1        0.0963
     19 C           7.6837    2.3455    0.0000 C.3     1  UNL1       -0.0142
     20 C          11.1478   -2.6545    0.0000 C.3     1  UNL1       -0.0142
     21 C           5.9236    3.6243    0.0000 C.3     1  UNL1       -0.0209
     22 C           9.3877   -3.9333    0.0000 C.3     1  UNL1       -0.0209
     23 C           8.4927    3.9333    0.0000 C.2     1  UNL1        0.3109
     24 C          11.9568   -4.2423    0.0000 C.2     1  UNL1        0.3109
     25 C           8.5497    1.8455    0.0000 C.ar    1  UNL1       -0.0423
     26 C          10.2818   -2.1545    0.0000 C.ar    1  UNL1       -0.0423
     27 C           5.1805    4.2934    0.0000 C.ar    1  UNL1       -0.0433
     28 C           8.6446   -4.6024    0.0000 C.ar    1  UNL1       -0.0433
     29 C           8.5497    0.8455    0.0000 C.ar    1  UNL1       -0.0470
     30 C          10.2818   -1.1545    0.0000 C.ar    1  UNL1       -0.0470
     31 C           9.4158    0.3455    0.0000 C.ar    1  UNL1        0.0311
     32 C           9.4158   -0.6545    0.0000 C.ar    1  UNL1        0.0311
     33 C           9.4158    2.3455    0.0000 C.ar    1  UNL1       -0.0131
     34 C           9.4158   -2.6545    0.0000 C.ar    1  UNL1       -0.0131
     35 C           5.3884    5.2715    0.0000 C.ar    1  UNL1       -0.0131
     36 C           7.6935   -4.2934    0.0000 C.ar    1  UNL1       -0.0131
     37 C           4.2294    3.9844    0.0000 C.ar    1  UNL1       -0.0549
     38 C           8.8525   -5.5806    0.0000 C.ar    1  UNL1       -0.0549
     39 C          10.2818    0.8455    0.0000 C.ar    1  UNL1        0.1664
     40 C           8.5497   -1.1545    0.0000 C.ar    1  UNL1        0.1664
     41 C          10.2818    1.8455    0.0000 C.ar    1  UNL1        0.1621
     42 C           8.5497   -2.1545    0.0000 C.ar    1  UNL1        0.1621
     43 C           4.6453    5.9407    0.0000 C.ar    1  UNL1        0.1617
     44 C           6.9504   -4.9625    0.0000 C.ar    1  UNL1        0.1617
     45 C           3.4863    4.6535    0.0000 C.ar    1  UNL1       -0.0160
     46 C           8.1094   -6.2497    0.0000 C.ar    1  UNL1       -0.0160
     47 C           3.6942    5.6316    0.0000 C.ar    1  UNL1        0.1615
     48 C           7.1583   -5.9407    0.0000 C.ar    1  UNL1        0.1615
     49 C          11.1478    3.3455    0.0000 C.3     1  UNL1        0.0790
     50 C           7.6837   -3.6545    0.0000 C.3     1  UNL1        0.0790
     51 C           4.1100    7.5880    0.0000 C.3     1  UNL1        0.0790
     52 C           5.2562   -5.3226    0.0000 C.3     1  UNL1        0.0790
     53 C           2.0000    5.9918    0.0000 C.3     1  UNL1        0.0790
     54 C           6.6231   -7.5880    0.0000 C.3     1  UNL1        0.0790
     55 H           6.7777    3.3209    0.0000 H       1  UNL1        0.0345
     56 H           9.9004   -4.6807    0.0000 H       1  UNL1        0.0345
     57 H           7.1313    3.0640    0.0000 H       1  UNL1        0.0420
     58 H          11.7002   -3.3730    0.0000 H       1  UNL1        0.0420
     59 H           7.2485    5.5009    0.0000 H       1  UNL1        0.0700
     60 H           6.5773    5.0132    0.0000 H       1  UNL1        0.0700
     61 H          10.0414   -5.3223    0.0000 H       1  UNL1        0.0700
     62 H          10.7126   -5.8100    0.0000 H       1  UNL1        0.0700
     63 H           7.0731    2.4532    0.0000 H       1  UNL1        0.0321
     64 H           7.4717    1.7629    0.0000 H       1  UNL1        0.0321
     65 H          11.7584   -2.7622    0.0000 H       1  UNL1        0.0321
     66 H          11.3599   -2.0719    0.0000 H       1  UNL1        0.0321
     67 H           5.4351    3.2426    0.0000 H       1  UNL1        0.0317
     68 H           6.2147    3.0768    0.0000 H       1  UNL1        0.0317
     69 H           9.6788   -3.3858    0.0000 H       1  UNL1        0.0317
     70 H           8.8992   -3.5516    0.0000 H       1  UNL1        0.0317
     71 H           8.0128    0.5355    0.0000 H       1  UNL1        0.0628
     72 H          10.8187   -0.8445    0.0000 H       1  UNL1        0.0628
     73 H           9.4158    2.9655    0.0000 H       1  UNL1        0.0658
     74 H           9.4158   -3.2745    0.0000 H       1  UNL1        0.0658
     75 H           5.9781    5.4631    0.0000 H       1  UNL1        0.0658
     76 H           7.5646   -3.6869    0.0000 H       1  UNL1        0.0658
     77 H           4.1005    3.3779    0.0000 H       1  UNL1        0.0621
     78 H           9.4422   -5.7722    0.0000 H       1  UNL1        0.0621
     79 H           2.8966    4.4619    0.0000 H       1  UNL1        0.0655
     80 H           8.2383   -6.8561    0.0000 H       1  UNL1        0.0655
     81 H          11.6847    0.6555    0.0000 H       1  UNL1        0.2923
     82 H           7.1468   -0.9645    0.0000 H       1  UNL1        0.2923
     83 H          11.7678    3.3455    0.0000 H       1  UNL1        0.0660
     84 H          11.1478    3.9655    0.0000 H       1  UNL1        0.0660
     85 H          10.5278    3.3455    0.0000 H       1  UNL1        0.0660
     86 H           7.0637   -3.6545    0.0000 H       1  UNL1        0.0660
     87 H           7.6837   -4.2745    0.0000 H       1  UNL1        0.0660
     88 H           8.3037   -3.6545    0.0000 H       1  UNL1        0.0660
     89 H           4.5249    8.0487    0.0000 H       1  UNL1        0.0660
     90 H           3.6493    8.0028    0.0000 H       1  UNL1        0.0660
     91 H           3.6952    7.1272    0.0000 H       1  UNL1        0.0660
     92 H           4.8413   -4.8619    0.0000 H       1  UNL1        0.0660
     93 H           4.7954   -5.7375    0.0000 H       1  UNL1        0.0660
     94 H           5.6710   -5.7834    0.0000 H       1  UNL1        0.0660
     95 H           1.8084    6.5814    0.0000 H       1  UNL1        0.0660
     96 H           1.4103    5.8002    0.0000 H       1  UNL1        0.0660
     97 H           2.1916    5.4021    0.0000 H       1  UNL1        0.0660
     98 H           6.0166   -7.7168    0.0000 H       1  UNL1        0.0660
     99 H           6.7520   -8.1944    0.0000 H       1  UNL1        0.0660
    100 H           7.2295   -7.4590    0.0000 H       1  UNL1        0.0660
@<TRIPOS>BOND
     1     1    17    1
     2     1    23    1
     3     2    18    1
     4     2    24    1
     5     3    23    2
     6     4    24    2
     7     5    41    1
     8     5    49    1
     9     6    42    1
    10     6    50    1
    11     7    39    1
    12     7    81    1
    13     8    40    1
    14     8    82    1
    15     9    43    1
    16     9    51    1
    17    10    44    1
    18    10    52    1
    19    11    47    1
    20    11    53    1
    21    12    48    1
    22    12    54    1
    23    13    15    1
    24    13    17    1
    25    13    21    1
    26    13    55    1
    27    14    16    1
    28    14    18    1
    29    14    22    1
    30    14    56    1
    31    15    19    1
    32    15    23    1
    33    15    57    1
    34    16    20    1
    35    16    24    1
    36    16    58    1
    37    17    59    1
    38    17    60    1
    39    18    61    1
    40    18    62    1
    41    19    25    1
    42    19    63    1
    43    19    64    1
    44    20    26    1
    45    20    65    1
    46    20    66    1
    47    21    27    1
    48    21    67    1
    49    21    68    1
    50    22    28    1
    51    22    69    1
    52    22    70    1
    53    25    29   ar
    54    25    33   ar
    55    26    30   ar
    56    26    34   ar
    57    27    35   ar
    58    27    37   ar
    59    28    36   ar
    60    28    38   ar
    61    29    31   ar
    62    29    71    1
    63    30    32   ar
    64    30    72    1
    65    31    32    1
    66    31    39   ar
    67    32    40   ar
    68    33    41   ar
    69    33    73    1
    70    34    42   ar
    71    34    74    1
    72    35    43   ar
    73    35    75    1
    74    36    44   ar
    75    36    76    1
    76    37    45   ar
    77    37    77    1
    78    38    46   ar
    79    38    78    1
    80    39    41   ar
    81    40    42   ar
    82    43    47   ar
    83    44    48   ar
    84    45    47   ar
    85    45    79    1
    86    46    48   ar
    87    46    80    1
    88    49    83    1
    89    49    84    1
    90    49    85    1
    91    50    86    1
    92    50    87    1
    93    50    88    1
    94    51    89    1
    95    51    90    1
    96    51    91    1
    97    52    92    1
    98    52    93    1
    99    52    94    1
   100    53    95    1
   101    53    96    1
   102    53    97    1
   103    54    98    1
   104    54    99    1
   105    54   100    1
