@<TRIPOS>MOLECULE
IMPHY007921
 52 55 0 0 0
SMALL
GASTEIGER

@<TRIPOS>ATOM
      1 O           2.5836    1.8978    0.0000 O.3     1  UNL1       -0.4519
      2 O           2.5836    3.5072    0.0000 O.3     1  UNL1       -0.4526
      3 O           3.9372   -0.0136    0.0000 O.2     1  UNL1       -0.2908
      4 O           6.9774    1.7416    0.0000 O.2     1  UNL1       -0.2909
      5 O           8.5938   -1.1044    0.0000 O.3     1  UNL1       -0.4914
      6 O           7.5938   -2.8365    0.0000 O.3     1  UNL1       -0.4914
      7 N           3.0938   -1.9704    0.0000 N.3     1  UNL1       -0.3080
      8 C           5.5938    0.6276    0.0000 C.3     1  UNL1        0.1103
      9 C           6.0938   -0.2384    0.0000 C.ar    1  UNL1       -0.0225
     10 C           4.3958    1.7025    0.0000 C.ar    1  UNL1        0.0743
     11 C           4.6051    0.7307    0.0000 C.2     1  UNL1        0.1823
     12 C           5.9989    1.5354    0.0000 C.2     1  UNL1        0.1788
     13 C           5.2619    2.2025    0.0000 C.ar    1  UNL1        0.0327
     14 C           5.5938   -1.1044    0.0000 C.ar    1  UNL1       -0.0382
     15 C           4.5938   -1.1044    0.0000 C.3     1  UNL1       -0.0145
     16 C           3.5298    2.2025    0.0000 C.ar    1  UNL1        0.1774
     17 C           7.0938   -0.2384    0.0000 C.ar    1  UNL1       -0.0118
     18 C           4.0938   -1.9704    0.0000 C.3     1  UNL1        0.0023
     19 C           5.2619    3.2025    0.0000 C.ar    1  UNL1       -0.0469
     20 C           6.0938   -1.9704    0.0000 C.ar    1  UNL1       -0.0128
     21 C           3.5298    3.2025    0.0000 C.ar    1  UNL1        0.1670
     22 C           7.5938   -1.1044    0.0000 C.ar    1  UNL1        0.1618
     23 C           4.3958    3.7025    0.0000 C.ar    1  UNL1       -0.0154
     24 C           7.0938   -1.9704    0.0000 C.ar    1  UNL1        0.1618
     25 C           2.0000    2.7025    0.0000 C.3     1  UNL1        0.2333
     26 C           2.5938   -2.8365    0.0000 C.3     1  UNL1       -0.0130
     27 C           2.5938   -1.1044    0.0000 C.3     1  UNL1       -0.0130
     28 C           9.0938   -1.9704    0.0000 C.3     1  UNL1        0.0790
     29 C           7.0938   -3.7025    0.0000 C.3     1  UNL1        0.0790
     30 H           5.2563    0.1075    0.0000 H       1  UNL1        0.0512
     31 H           4.7014   -0.4938    0.0000 H       1  UNL1        0.0326
     32 H           4.0112   -0.8924    0.0000 H       1  UNL1        0.0326
     33 H           7.4038    0.2985    0.0000 H       1  UNL1        0.0658
     34 H           3.9861   -2.5810    0.0000 H       1  UNL1        0.0429
     35 H           4.6764   -2.1825    0.0000 H       1  UNL1        0.0429
     36 H           5.7988    3.5125    0.0000 H       1  UNL1        0.0626
     37 H           5.7838   -2.5074    0.0000 H       1  UNL1        0.0658
     38 H           4.3958    4.3225    0.0000 H       1  UNL1        0.0655
     39 H           1.5391    3.1172    0.0000 H       1  UNL1        0.1166
     40 H           1.5391    2.2878    0.0000 H       1  UNL1        0.1166
     41 H           3.1307   -0.7944    0.0000 H       1  UNL1        0.0391
     42 H           2.2838   -0.5675    0.0000 H       1  UNL1        0.0391
     43 H           2.0568   -1.4144    0.0000 H       1  UNL1        0.0391
     44 H           2.0568   -2.5265    0.0000 H       1  UNL1        0.0391
     45 H           2.2838   -3.3734    0.0000 H       1  UNL1        0.0391
     46 H           3.1307   -3.1465    0.0000 H       1  UNL1        0.0391
     47 H           8.5569   -2.2804    0.0000 H       1  UNL1        0.0660
     48 H           9.4038   -2.5074    0.0000 H       1  UNL1        0.0660
     49 H           9.6307   -1.6604    0.0000 H       1  UNL1        0.0660
     50 H           6.5568   -3.3925    0.0000 H       1  UNL1        0.0660
     51 H           6.7838   -4.2394    0.0000 H       1  UNL1        0.0660
     52 H           7.6307   -4.0125    0.0000 H       1  UNL1        0.0660
@<TRIPOS>BOND
     1     1    16    1
     2     1    25    1
     3     2    21    1
     4     2    25    1
     5     3    11    2
     6     4    12    2
     7     5    22    1
     8     5    28    1
     9     6    24    1
    10     6    29    1
    11     7    18    1
    12     7    26    1
    13     7    27    1
    14     8     9    1
    15     8    11    1
    16     8    12    1
    17     8    30    1
    18     9    14   ar
    19     9    17   ar
    20    10    11    1
    21    10    13   ar
    22    10    16   ar
    23    12    13    1
    24    13    19   ar
    25    14    15    1
    26    14    20   ar
    27    15    18    1
    28    15    31    1
    29    15    32    1
    30    16    21   ar
    31    17    22   ar
    32    17    33    1
    33    18    34    1
    34    18    35    1
    35    19    23   ar
    36    19    36    1
    37    20    24   ar
    38    20    37    1
    39    21    23   ar
    40    22    24   ar
    41    23    38    1
    42    25    39    1
    43    25    40    1
    44    26    44    1
    45    26    45    1
    46    26    46    1
    47    27    41    1
    48    27    42    1
    49    27    43    1
    50    28    47    1
    51    28    48    1
    52    28    49    1
    53    29    50    1
    54    29    51    1
    55    29    52    1
