@<TRIPOS>MOLECULE
IMPHY009144
 80 83 0 0 0
SMALL
GASTEIGER

@<TRIPOS>ATOM
      1 O           4.6850   -4.0118    0.0000 O.3     1  UNL1       -0.4806
      2 O           3.1817   -3.1516    0.0000 O.2     1  UNL1       -0.2510
      3 C           6.5251    1.5504    0.0000 C.3     1  UNL1       -0.0231
      4 C           5.6151    1.0436    0.0000 C.3     1  UNL1       -0.0230
      5 C           7.3912    1.0504    0.0000 C.3     1  UNL1       -0.0294
      6 C           8.2572    1.5504    0.0000 C.3     1  UNL1       -0.0253
      7 C           5.6071    0.0020    0.0000 C.3     1  UNL1       -0.0292
      8 C           8.2572    2.5504    0.0000 C.3     1  UNL1       -0.0288
      9 C           6.5251    2.5504    0.0000 C.3     1  UNL1       -0.0466
     10 C           7.4072    0.0089    0.0000 C.3     1  UNL1       -0.0489
     11 C           4.6717   -0.5478    0.0000 C.3     1  UNL1       -0.0217
     12 C           6.5092   -0.5189    0.0000 C.3     1  UNL1       -0.0489
     13 C           7.3912    3.0504    0.0000 C.3     1  UNL1       -0.0486
     14 C           4.6883    1.6076    0.0000 C.3     1  UNL1       -0.0463
     15 C           9.2034    1.2457    0.0000 C.3     1  UNL1       -0.0465
     16 C           9.2034    2.8551    0.0000 C.3     1  UNL1       -0.0171
     17 C           3.7320   -0.0053    0.0000 C.3     1  UNL1       -0.0147
     18 C           5.8823    2.3164    0.0000 C.3     1  UNL1       -0.0588
     19 C           9.7870    2.0504    0.0000 C.3     1  UNL1       -0.0457
     20 C           5.2804    1.9859    0.0000 C.3     1  UNL1       -0.0588
     21 C           3.7404    1.0797    0.0000 C.3     1  UNL1       -0.0455
     22 C           8.2572    0.5504    0.0000 C.3     1  UNL1       -0.0590
     23 C           4.1750   -1.4157    0.0000 C.3     1  UNL1       -0.0367
     24 C           5.1750   -1.4118    0.0000 C.3     1  UNL1       -0.0587
     25 C           9.5141    3.8057    0.0000 C.2     1  UNL1       -0.0763
     26 C           2.8641   -0.5019    0.0000 C.2     1  UNL1       -0.0761
     27 C           4.6784   -2.2798    0.0000 C.3     1  UNL1        0.0453
     28 C          10.4926    4.0119    0.0000 C.3     1  UNL1       -0.0438
     29 C           2.0000    0.0014    0.0000 C.3     1  UNL1       -0.0438
     30 C           8.8462    4.5500    0.0000 C.2     1  UNL1       -0.0994
     31 C           2.8602   -1.5019    0.0000 C.2     1  UNL1       -0.0994
     32 C           4.1817   -3.1478    0.0000 C.2     1  UNL1        0.3047
     33 H           7.9305    0.7446    0.0000 H       1  UNL1        0.0312
     34 H           5.6095   -0.6180    0.0000 H       1  UNL1        0.0312
     35 H           8.3228    3.1669    0.0000 H       1  UNL1        0.0312
     36 H           6.3131    3.1330    0.0000 H       1  UNL1        0.0271
     37 H           5.9145    2.4428    0.0000 H       1  UNL1        0.0271
     38 H           7.6252   -0.5715    0.0000 H       1  UNL1        0.0268
     39 H           8.0164    0.1244    0.0000 H       1  UNL1        0.0268
     40 H           6.1119   -0.9948    0.0000 H       1  UNL1        0.0268
     41 H           6.9101   -0.9917    0.0000 H       1  UNL1        0.0268
     42 H           7.7897    3.5254    0.0000 H       1  UNL1        0.0268
     43 H           6.9926    3.5254    0.0000 H       1  UNL1        0.0268
     44 H           5.0965    2.0743    0.0000 H       1  UNL1        0.0271
     45 H           4.2984    2.0897    0.0000 H       1  UNL1        0.0271
     46 H           8.9524    0.6788    0.0000 H       1  UNL1        0.0271
     47 H           9.7408    0.9365    0.0000 H       1  UNL1        0.0271
     48 H           9.8159    2.9513    0.0000 H       1  UNL1        0.0348
     49 H           3.7308   -0.6253    0.0000 H       1  UNL1        0.0351
     50 H           6.3573    2.7150    0.0000 H       1  UNL1        0.0235
     51 H           5.4838    2.7914    0.0000 H       1  UNL1        0.0235
     52 H           5.4074    1.9179    0.0000 H       1  UNL1        0.0235
     53 H          10.2479    1.6357    0.0000 H       1  UNL1        0.0271
     54 H          10.2479    2.4651    0.0000 H       1  UNL1        0.0271
     55 H           5.8646    2.1934    0.0000 H       1  UNL1        0.0235
     56 H           5.0728    2.5701    0.0000 H       1  UNL1        0.0235
     57 H           4.6961    1.7783    0.0000 H       1  UNL1        0.0235
     58 H           3.5358    1.6650    0.0000 H       1  UNL1        0.0271
     59 H           3.1288    0.9783    0.0000 H       1  UNL1        0.0271
     60 H           7.6372    0.5504    0.0000 H       1  UNL1        0.0235
     61 H           8.2572   -0.0696    0.0000 H       1  UNL1        0.0235
     62 H           8.8772    0.5504    0.0000 H       1  UNL1        0.0235
     63 H           3.6985   -1.0190    0.0000 H       1  UNL1        0.0276
     64 H           3.7016   -1.8161    0.0000 H       1  UNL1        0.0276
     65 H           4.6393   -1.7239    0.0000 H       1  UNL1        0.0235
     66 H           5.4871   -1.9476    0.0000 H       1  UNL1        0.0235
     67 H           5.7107   -1.0998    0.0000 H       1  UNL1        0.0235
     68 H           5.1548   -2.6765    0.0000 H       1  UNL1        0.0378
     69 H           5.1518   -1.8794    0.0000 H       1  UNL1        0.0378
     70 H          10.6204    3.4052    0.0000 H       1  UNL1        0.0274
     71 H          11.0992    4.1397    0.0000 H       1  UNL1        0.0274
     72 H          10.3647    4.6186    0.0000 H       1  UNL1        0.0274
     73 H           2.3121    0.5371    0.0000 H       1  UNL1        0.0274
     74 H           1.4643    0.3135    0.0000 H       1  UNL1        0.0274
     75 H           1.6879   -0.5343    0.0000 H       1  UNL1        0.0274
     76 H           9.0388    5.1393    0.0000 H       1  UNL1        0.0534
     77 H           8.2395    4.4221    0.0000 H       1  UNL1        0.0534
     78 H           2.3221   -1.8098    0.0000 H       1  UNL1        0.0534
     79 H           3.3960   -1.8140    0.0000 H       1  UNL1        0.0534
     80 H           4.3771   -4.5500    0.0000 H       1  UNL1        0.2951
@<TRIPOS>BOND
     1     1    32    1
     2     1    80    1
     3     2    32    2
     4     3     4    1
     5     3     5    1
     6     3     9    1
     7     3    18    1
     8     4     7    1
     9     4    14    1
    10     4    20    1
    11     5     6    1
    12     5    10    1
    13     5    33    1
    14     6     8    1
    15     6    15    1
    16     6    22    1
    17     7    11    1
    18     7    12    1
    19     7    34    1
    20     8    13    1
    21     8    16    1
    22     8    35    1
    23     9    13    1
    24     9    36    1
    25     9    37    1
    26    10    12    1
    27    10    38    1
    28    10    39    1
    29    11    17    1
    30    11    23    1
    31    11    24    1
    32    12    40    1
    33    12    41    1
    34    13    42    1
    35    13    43    1
    36    14    21    1
    37    14    44    1
    38    14    45    1
    39    15    19    1
    40    15    46    1
    41    15    47    1
    42    16    19    1
    43    16    25    1
    44    16    48    1
    45    17    21    1
    46    17    26    1
    47    17    49    1
    48    18    50    1
    49    18    51    1
    50    18    52    1
    51    19    53    1
    52    19    54    1
    53    20    55    1
    54    20    56    1
    55    20    57    1
    56    21    58    1
    57    21    59    1
    58    22    60    1
    59    22    61    1
    60    22    62    1
    61    23    27    1
    62    23    63    1
    63    23    64    1
    64    24    65    1
    65    24    66    1
    66    24    67    1
    67    25    28    1
    68    25    30    2
    69    26    29    1
    70    26    31    2
    71    27    32    1
    72    27    68    1
    73    27    69    1
    74    28    70    1
    75    28    71    1
    76    28    72    1
    77    29    73    1
    78    29    74    1
    79    29    75    1
    80    30    76    1
    81    30    77    1
    82    31    78    1
    83    31    79    1
