@<TRIPOS>MOLECULE
IMPHY008704
 59 61 0 0 0
SMALL
GASTEIGER

@<TRIPOS>ATOM
      1 O           9.2135   -0.5871    0.0000 O.3     1  UNL1       -0.3878
      2 O           3.3187   -1.9797    0.0000 O.3     1  UNL1       -0.3890
      3 O           2.3121   -0.2516    0.0000 O.3     1  UNL1       -0.3924
      4 C           6.6154   -0.0871    0.0000 C.3     1  UNL1       -0.0238
      5 C           7.4814    0.4129    0.0000 C.3     1  UNL1       -0.0060
      6 C           8.3474   -0.0871    0.0000 C.3     1  UNL1        0.0745
      7 C           6.6154   -1.0871    0.0000 C.3     1  UNL1       -0.0346
      8 C           9.2574    0.4197    0.0000 C.3     1  UNL1       -0.0058
      9 C           5.7214    0.4475    0.0000 C.3     1  UNL1       -0.0465
     10 C           8.3474   -1.0871    0.0000 C.3     1  UNL1       -0.0229
     11 C           7.4814   -1.5871    0.0000 C.3     1  UNL1       -0.0471
     12 C           5.7214   -1.6218    0.0000 C.3     1  UNL1       -0.0418
     13 C           4.8154   -1.1079    0.0000 C.3     1  UNL1       -0.0037
     14 C           7.4654    1.4544    0.0000 C.3     1  UNL1       -0.0471
     15 C           4.8154   -0.0663    0.0000 C.3     1  UNL1       -0.0447
     16 C           9.2655    1.4613    0.0000 C.3     1  UNL1       -0.0452
     17 C           6.6154    0.9129    0.0000 C.3     1  UNL1       -0.0590
     18 C           8.3634    1.9821    0.0000 C.3     1  UNL1       -0.0521
     19 C           3.8154   -1.1118    0.0000 C.3     1  UNL1        0.0836
     20 C          10.2574    0.4082    0.0000 C.3     1  UNL1       -0.0572
     21 C          10.0160   -0.2319    0.0000 C.3     1  UNL1       -0.0572
     22 C           4.3187   -1.9759    0.0000 C.3     1  UNL1       -0.0571
     23 C           3.3121   -0.2477    0.0000 C.3     1  UNL1        0.0706
     24 H           8.2142    0.8435    0.0000 H       1  UNL1        0.0334
     25 H           6.6220   -1.9371    0.0000 H       1  UNL1        0.0306
     26 H           6.1260    0.9173    0.0000 H       1  UNL1        0.0271
     27 H           5.3278    0.9266    0.0000 H       1  UNL1        0.0271
     28 H           8.5595   -1.6697    0.0000 H       1  UNL1        0.0293
     29 H           8.9580   -0.9795    0.0000 H       1  UNL1        0.0293
     30 H           7.0829   -2.0621    0.0000 H       1  UNL1        0.0269
     31 H           7.8800   -2.0621    0.0000 H       1  UNL1        0.0269
     32 H           5.3278   -2.1008    0.0000 H       1  UNL1        0.0274
     33 H           6.1260   -2.0916    0.0000 H       1  UNL1        0.0274
     34 H           7.2473    2.0348    0.0000 H       1  UNL1        0.0269
     35 H           6.8562    1.3389    0.0000 H       1  UNL1        0.0269
     36 H           4.6063    0.5174    0.0000 H       1  UNL1        0.0272
     37 H           4.2045   -0.1724    0.0000 H       1  UNL1        0.0272
     38 H           9.8755    1.3505    0.0000 H       1  UNL1        0.0271
     39 H           9.4790    2.0434    0.0000 H       1  UNL1        0.0271
     40 H           7.2354    0.9129    0.0000 H       1  UNL1        0.0235
     41 H           6.6154    1.5329    0.0000 H       1  UNL1        0.0235
     42 H           5.9954    0.9129    0.0000 H       1  UNL1        0.0235
     43 H           8.7607    2.4581    0.0000 H       1  UNL1        0.0266
     44 H           7.9624    2.4550    0.0000 H       1  UNL1        0.0266
     45 H           3.1954   -1.1142    0.0000 H       1  UNL1        0.0621
     46 H           9.6120   -0.7022    0.0000 H       1  UNL1        0.0236
     47 H          10.4863   -0.6359    0.0000 H       1  UNL1        0.0236
     48 H          10.4200    0.2384    0.0000 H       1  UNL1        0.0236
     49 H          10.2502   -0.2118    0.0000 H       1  UNL1        0.0236
     50 H          10.8773    0.4010    0.0000 H       1  UNL1        0.0236
     51 H          10.2645    1.0281    0.0000 H       1  UNL1        0.0236
     52 H           9.2135   -1.2071    0.0000 H       1  UNL1        0.2102
     53 H           3.7806   -1.6680    0.0000 H       1  UNL1        0.0236
     54 H           4.0108   -2.5140    0.0000 H       1  UNL1        0.0236
     55 H           4.8568   -2.2838    0.0000 H       1  UNL1        0.0236
     56 H           3.8938   -0.0334    0.0000 H       1  UNL1        0.0583
     57 H           3.2020    0.3625    0.0000 H       1  UNL1        0.0583
     58 H           2.6987   -1.9821    0.0000 H       1  UNL1        0.2099
     59 H           2.0000    0.2842    0.0000 H       1  UNL1        0.2095
@<TRIPOS>BOND
     1     6     1    1
     2     1    52    1
     3     2    19    1
     4     2    58    1
     5     3    23    1
     6     3    59    1
     7     4     5    1
     8     4     7    1
     9     4     9    1
    10     4    17    1
    11     5     6    1
    12     5    14    1
    13     5    24    1
    14     6     8    1
    15     6    10    1
    16     7    11    1
    17     7    12    1
    18     7    25    1
    19     8    16    1
    20     8    20    1
    21     8    21    1
    22     9    15    1
    23     9    26    1
    24     9    27    1
    25    10    11    1
    26    10    28    1
    27    10    29    1
    28    11    30    1
    29    11    31    1
    30    12    13    1
    31    12    32    1
    32    12    33    1
    33    13    15    1
    34    13    19    1
    35    13    22    1
    36    14    18    1
    37    14    34    1
    38    14    35    1
    39    15    36    1
    40    15    37    1
    41    16    18    1
    42    16    38    1
    43    16    39    1
    44    17    40    1
    45    17    41    1
    46    17    42    1
    47    18    43    1
    48    18    44    1
    49    19    23    1
    50    19    45    1
    51    20    49    1
    52    20    50    1
    53    20    51    1
    54    21    46    1
    55    21    47    1
    56    21    48    1
    57    22    53    1
    58    22    54    1
    59    22    55    1
    60    23    56    1
    61    23    57    1
