@<TRIPOS>MOLECULE
IMPHY017950
 11 10 0 0 0
SMALL
GASTEIGER

@<TRIPOS>ATOM
      1 C           8.0539   -0.6685    0.0000 C.2     1  UNL1       -0.0003
      2 C           6.9022    0.0000    0.0000 C.2     1  UNL1       -0.0043
      3 C           5.7505   -0.6685    0.0000 C.2     1  UNL1       -0.0219
      4 C           5.7505   -1.9974    0.0000 C.2     1  UNL1       -0.0046
      5 C           4.5988    0.0000    0.0000 C.3     1  UNL1        0.0310
      6 C           3.4551   -0.6685    0.0000 C.3     1  UNL1        0.0305
      7 C           2.3034    0.0000    0.0000 C.2     1  UNL1       -0.0268
      8 C           1.1517   -0.6685    0.0000 C.2     1  UNL1        0.0161
      9 C           0.0000    0.0000    0.0000 C.3     1  UNL1        0.0341
     10 C           1.1517   -1.9974    0.0000 C.2     1  UNL1        0.2296
     11 O           0.0000   -2.6578    0.0000 O.2     1  UNL1       -0.2835
@<TRIPOS>BOND
     1     1     2    2
     2     2     3    1
     3     3     4    2
     4     3     5    1
     5     5     6    1
     6     6     7    1
     7     7     8    2
     8     8     9    1
     9     8    10    1
    10    10    11    2
