@<TRIPOS>MOLECULE
IMPHY003730
 164 172 0 0 0
SMALL
GASTEIGER

@<TRIPOS>ATOM
      1 O           6.8671   -3.6772    0.0000 O.3     1  UNL1       -0.3448
      2 O           8.6424    5.6772    0.0000 O.3     1  UNL1       -0.3448
      3 O           9.3112   -2.9856    0.0000 O.3     1  UNL1       -0.3944
      4 O           4.3882    6.0056    0.0000 O.3     1  UNL1       -0.4802
      5 O           5.1350   -3.6772    0.0000 O.3     1  UNL1       -0.3315
      6 O           5.8747    6.8946    0.0000 O.2     1  UNL1       -0.2504
      7 O           7.7764    7.1772    0.0000 O.3     1  UNL1       -0.3431
      8 O           6.8671   -5.6772    0.0000 O.3     1  UNL1       -0.3377
      9 O          10.3745    6.6772    0.0000 O.3     1  UNL1       -0.3841
     10 O           5.1350   -6.6772    0.0000 O.3     1  UNL1       -0.3864
     11 O          10.3745    8.6773    0.0000 O.3     1  UNL1       -0.3864
     12 O           3.4030   -5.6772    0.0000 O.3     1  UNL1       -0.3860
     13 O           8.6424    9.6773    0.0000 O.3     1  UNL1       -0.3866
     14 O           6.0010   -7.1772    0.0000 O.3     1  UNL1       -0.3405
     15 O           2.5369   -4.1772    0.0000 O.3     1  UNL1       -0.4788
     16 O           3.4030   -2.6772    0.0000 O.2     1  UNL1       -0.2480
     17 O           8.5991   -6.6772    0.0000 O.3     1  UNL1       -0.3378
     18 O           8.5991   -8.6773    0.0000 O.3     1  UNL1       -0.3864
     19 O           6.8671   -9.6773    0.0000 O.3     1  UNL1       -0.3865
     20 O           9.4651   -8.1773    0.0000 O.3     1  UNL1       -0.3431
     21 O           5.1350   -9.6773    0.0000 O.3     1  UNL1       -0.3924
     22 O          10.3312   -5.6772    0.0000 O.3     1  UNL1       -0.3841
     23 O          12.0632   -6.6772    0.0000 O.3     1  UNL1       -0.3864
     24 O          12.0632   -8.6773    0.0000 O.3     1  UNL1       -0.3866
     25 C           7.7681    1.0230    0.0000 C.3     1  UNL1       -0.0194
     26 C           6.9040    0.5196    0.0000 C.3     1  UNL1       -0.0257
     27 C           6.8920   -0.5219    0.0000 C.3     1  UNL1       -0.0249
     28 C           7.7643    2.0230    0.0000 C.3     1  UNL1       -0.0051
     29 C           7.7920   -1.0462    0.0000 C.3     1  UNL1       -0.0255
     30 C           8.6801    0.5196    0.0000 C.3     1  UNL1       -0.0463
     31 C           6.8963    2.5196    0.0000 C.2     1  UNL1       -0.0633
     32 C           7.8046   -2.1311    0.0000 C.3     1  UNL1        0.0206
     33 C           8.6921   -0.5219    0.0000 C.3     1  UNL1       -0.0485
     34 C           6.8762    3.5611    0.0000 C.3     1  UNL1       -0.0106
     35 C           7.7722    4.0923    0.0000 C.3     1  UNL1        0.0008
     36 C           6.0361    1.0163    0.0000 C.3     1  UNL1       -0.0306
     37 C           8.6723    2.5333    0.0000 C.3     1  UNL1       -0.0428
     38 C           5.9421   -1.0462    0.0000 C.3     1  UNL1       -0.0447
     39 C           8.6763    3.5749    0.0000 C.3     1  UNL1       -0.0439
     40 C           8.7522    1.2004    0.0000 C.3     1  UNL1       -0.0585
     41 C           6.8671   -2.6772    0.0000 C.3     1  UNL1        0.0695
     42 C           6.0322    2.0163    0.0000 C.2     1  UNL1       -0.0836
     43 C           6.0279   -0.0186    0.0000 C.3     1  UNL1       -0.0590
     44 C           5.9295   -2.1311    0.0000 C.3     1  UNL1       -0.0254
     45 C           8.7497    1.8531    0.0000 C.3     1  UNL1       -0.0553
     46 C           5.9223    4.0780    0.0000 C.3     1  UNL1       -0.0303
     47 C           7.7764    5.1772    0.0000 C.3     1  UNL1        0.0687
     48 C           5.9014    5.1628    0.0000 C.3     1  UNL1        0.0677
     49 C           8.8046   -2.1234    0.0000 C.3     1  UNL1        0.0522
     50 C           6.8347    5.7161    0.0000 C.3     1  UNL1       -0.0104
     51 C           8.3113   -2.9933    0.0000 C.3     1  UNL1       -0.0548
     52 C           8.6324    4.6022    0.0000 C.3     1  UNL1       -0.0567
     53 C           4.9015    5.1474    0.0000 C.3     1  UNL1       -0.0493
     54 C           5.3881    6.0210    0.0000 C.2     1  UNL1        0.3108
     55 C           6.0010   -4.1772    0.0000 C.3     1  UNL1        0.1892
     56 C           8.6424    6.6772    0.0000 C.3     1  UNL1        0.1881
     57 C           6.0010   -5.1772    0.0000 C.3     1  UNL1        0.1407
     58 C           9.5085    7.1772    0.0000 C.3     1  UNL1        0.1341
     59 C           5.1350   -5.6772    0.0000 C.3     1  UNL1        0.1149
     60 C           9.5085    8.1773    0.0000 C.3     1  UNL1        0.1140
     61 C           4.2690   -4.1772    0.0000 C.3     1  UNL1        0.1859
     62 C           4.2690   -5.1772    0.0000 C.3     1  UNL1        0.1202
     63 C           7.7764    8.1773    0.0000 C.3     1  UNL1        0.0873
     64 C           8.6424    8.6773    0.0000 C.3     1  UNL1        0.1095
     65 C           6.8671   -6.6772    0.0000 C.3     1  UNL1        0.1889
     66 C           6.9104    8.6773    0.0000 C.3     1  UNL1       -0.0361
     67 C           3.4030   -3.6772    0.0000 C.2     1  UNL1        0.3367
     68 C           7.7331   -7.1772    0.0000 C.3     1  UNL1        0.1406
     69 C           7.7331   -8.1773    0.0000 C.3     1  UNL1        0.1144
     70 C           6.0010   -8.1773    0.0000 C.3     1  UNL1        0.1130
     71 C           6.8671   -8.6773    0.0000 C.3     1  UNL1        0.1119
     72 C           5.1350   -8.6773    0.0000 C.3     1  UNL1        0.0730
     73 C           9.4651   -7.1772    0.0000 C.3     1  UNL1        0.1884
     74 C          10.3312   -6.6772    0.0000 C.3     1  UNL1        0.1341
     75 C          11.1972   -7.1772    0.0000 C.3     1  UNL1        0.1140
     76 C          10.3312   -8.6773    0.0000 C.3     1  UNL1        0.0873
     77 C          11.1972   -8.1773    0.0000 C.3     1  UNL1        0.1095
     78 C          10.3312   -9.6773    0.0000 C.3     1  UNL1       -0.0361
     79 H           7.6385    0.0918    0.0000 H       1  UNL1        0.0315
     80 H           8.5314   -1.4655    0.0000 H       1  UNL1        0.0313
     81 H           9.2921    0.4206    0.0000 H       1  UNL1        0.0271
     82 H           8.8824    1.1057    0.0000 H       1  UNL1        0.0271
     83 H           8.9079   -1.1032    0.0000 H       1  UNL1        0.0268
     84 H           9.3017   -0.4088    0.0000 H       1  UNL1        0.0268
     85 H           6.1502    3.1192    0.0000 H       1  UNL1        0.0352
     86 H           5.4251    1.1216    0.0000 H       1  UNL1        0.0310
     87 H           5.8263    0.4329    0.0000 H       1  UNL1        0.0310
     88 H           8.8791    1.9488    0.0000 H       1  UNL1        0.0274
     89 H           9.2836    2.6370    0.0000 H       1  UNL1        0.0274
     90 H           5.7398   -0.4601    0.0000 H       1  UNL1        0.0271
     91 H           5.3300   -1.1452    0.0000 H       1  UNL1        0.0271
     92 H           9.2868    3.4665    0.0000 H       1  UNL1        0.0272
     93 H           8.8876    4.1578    0.0000 H       1  UNL1        0.0272
     94 H           8.8623    0.5902    0.0000 H       1  UNL1        0.0235
     95 H           9.3624    1.3104    0.0000 H       1  UNL1        0.0235
     96 H           8.6422    1.8106    0.0000 H       1  UNL1        0.0235
     97 H           7.4046   -2.9862    0.0000 H       1  UNL1        0.0603
     98 H           5.4941    2.3242    0.0000 H       1  UNL1        0.0572
     99 H           6.3400    0.5171    0.0000 H       1  UNL1        0.0235
    100 H           5.4922    0.2935    0.0000 H       1  UNL1        0.0235
    101 H           5.7158   -0.5543    0.0000 H       1  UNL1        0.0235
    102 H           5.3199   -2.0180    0.0000 H       1  UNL1        0.0290
    103 H           5.7137   -2.7124    0.0000 H       1  UNL1        0.0290
    104 H           8.6444    1.2421    0.0000 H       1  UNL1        0.0238
    105 H           9.3607    1.7478    0.0000 H       1  UNL1        0.0238
    106 H           8.8550    2.4641    0.0000 H       1  UNL1        0.0238
    107 H           5.3095    4.1723    0.0000 H       1  UNL1        0.0282
    108 H           5.7246    3.4904    0.0000 H       1  UNL1        0.0282
    109 H           7.7752    5.7972    0.0000 H       1  UNL1        0.0603
    110 H           9.3855   -1.9069    0.0000 H       1  UNL1        0.0563
    111 H           8.6922   -1.5137    0.0000 H       1  UNL1        0.0563
    112 H           7.2302    6.1936    0.0000 H       1  UNL1        0.0301
    113 H           6.4319    6.1875    0.0000 H       1  UNL1        0.0301
    114 H           7.7767   -3.3074    0.0000 H       1  UNL1        0.0237
    115 H           8.6254   -3.5278    0.0000 H       1  UNL1        0.0237
    116 H           8.8458   -2.6792    0.0000 H       1  UNL1        0.0237
    117 H           8.9486    4.0689    0.0000 H       1  UNL1        0.0236
    118 H           9.1657    4.9184    0.0000 H       1  UNL1        0.0236
    119 H           8.3162    5.1356    0.0000 H       1  UNL1        0.0236
    120 H           4.8920    5.7673    0.0000 H       1  UNL1        0.0240
    121 H           4.2816    5.1378    0.0000 H       1  UNL1        0.0240
    122 H           4.9111    4.5275    0.0000 H       1  UNL1        0.0240
    123 H           6.0010   -3.5572    0.0000 H       1  UNL1        0.0938
    124 H           9.9312   -2.9808    0.0000 H       1  UNL1        0.2094
    125 H           8.1055    6.3672    0.0000 H       1  UNL1        0.0937
    126 H           6.0010   -5.7972    0.0000 H       1  UNL1        0.0675
    127 H          10.0454    7.4872    0.0000 H       1  UNL1        0.0671
    128 H           4.0700    6.5377    0.0000 H       1  UNL1        0.2951
    129 H           4.5981   -5.9873    0.0000 H       1  UNL1        0.0648
    130 H           9.5085    8.7972    0.0000 H       1  UNL1        0.0648
    131 H           4.2690   -3.5572    0.0000 H       1  UNL1        0.0741
    132 H           3.7320   -4.8672    0.0000 H       1  UNL1        0.0652
    133 H           7.2395    7.8672    0.0000 H       1  UNL1        0.0621
    134 H           8.1055    8.9872    0.0000 H       1  UNL1        0.0646
    135 H          10.9114    6.9872    0.0000 H       1  UNL1        0.2101
    136 H           7.4040   -6.3672    0.0000 H       1  UNL1        0.0938
    137 H           4.5981   -6.9872    0.0000 H       1  UNL1        0.2100
    138 H           7.2204    9.2142    0.0000 H       1  UNL1        0.0255
    139 H           6.3735    8.9872    0.0000 H       1  UNL1        0.0255
    140 H           6.6004    8.1403    0.0000 H       1  UNL1        0.0255
    141 H          10.3745    9.2972    0.0000 H       1  UNL1        0.2100
    142 H           3.4030   -6.2972    0.0000 H       1  UNL1        0.2100
    143 H           8.1055    9.9872    0.0000 H       1  UNL1        0.2100
    144 H           8.2700   -7.4872    0.0000 H       1  UNL1        0.0675
    145 H           7.7331   -8.7972    0.0000 H       1  UNL1        0.0648
    146 H           5.4641   -7.8672    0.0000 H       1  UNL1        0.0647
    147 H           2.0000   -3.8672    0.0000 H       1  UNL1        0.2951
    148 H           6.3301   -8.9872    0.0000 H       1  UNL1        0.0647
    149 H           4.9230   -8.0946    0.0000 H       1  UNL1        0.0584
    150 H           4.5244   -8.7849    0.0000 H       1  UNL1        0.0584
    151 H           9.4651   -6.5572    0.0000 H       1  UNL1        0.0938
    152 H           8.5991   -9.2972    0.0000 H       1  UNL1        0.2100
    153 H           7.4040   -9.9872    0.0000 H       1  UNL1        0.2100
    154 H          10.8681   -6.3672    0.0000 H       1  UNL1        0.0671
    155 H           4.5981   -9.9872    0.0000 H       1  UNL1        0.2095
    156 H          11.7341   -7.4872    0.0000 H       1  UNL1        0.0648
    157 H           9.7942   -8.9872    0.0000 H       1  UNL1        0.0621
    158 H          11.1972   -8.7972    0.0000 H       1  UNL1        0.0646
    159 H          10.8681   -5.3672    0.0000 H       1  UNL1        0.2101
    160 H           9.7112   -9.6773    0.0000 H       1  UNL1        0.0255
    161 H          10.3312  -10.2973    0.0000 H       1  UNL1        0.0255
    162 H          10.9512   -9.6773    0.0000 H       1  UNL1        0.0255
    163 H          12.6002   -6.9872    0.0000 H       1  UNL1        0.2100
    164 H          12.0632   -9.2972    0.0000 H       1  UNL1        0.2100
@<TRIPOS>BOND
     1    41     1    1
     2    55     1    1
     3    47     2    1
     4    56     2    1
     5     3    49    1
     6     3   124    1
     7     4    54    1
     8     4   128    1
     9     5    55    1
    10     5    61    1
    11     6    54    2
    12     7    56    1
    13     7    63    1
    14    57     8    1
    15    65     8    1
    16    58     9    1
    17     9   135    1
    18    59    10    1
    19    10   137    1
    20    60    11    1
    21    11   141    1
    22    62    12    1
    23    12   142    1
    24    64    13    1
    25    13   143    1
    26    14    65    1
    27    14    70    1
    28    15    67    1
    29    15   147    1
    30    16    67    2
    31    68    17    1
    32    73    17    1
    33    69    18    1
    34    18   152    1
    35    71    19    1
    36    19   153    1
    37    20    73    1
    38    20    76    1
    39    21    72    1
    40    21   155    1
    41    74    22    1
    42    22   159    1
    43    75    23    1
    44    23   163    1
    45    77    24    1
    46    24   164    1
    47    25    26    1
    48    25    28    1
    49    25    30    1
    50    25    40    1
    51    26    27    1
    52    26    36    1
    53    26    79    1
    54    27    29    1
    55    27    38    1
    56    27    43    1
    57    28    31    1
    58    28    37    1
    59    28    45    1
    60    29    32    1
    61    29    33    1
    62    29    80    1
    63    30    33    1
    64    30    81    1
    65    30    82    1
    66    31    34    1
    67    31    42    2
    68    32    41    1
    69    32    49    1
    70    32    51    1
    71    33    83    1
    72    33    84    1
    73    34    35    1
    74    34    46    1
    75    34    85    1
    76    35    39    1
    77    35    47    1
    78    35    52    1
    79    36    42    1
    80    36    86    1
    81    36    87    1
    82    37    39    1
    83    37    88    1
    84    37    89    1
    85    38    44    1
    86    38    90    1
    87    38    91    1
    88    39    92    1
    89    39    93    1
    90    40    94    1
    91    40    95    1
    92    40    96    1
    93    41    44    1
    94    41    97    1
    95    42    98    1
    96    43    99    1
    97    43   100    1
    98    43   101    1
    99    44   102    1
   100    44   103    1
   101    45   104    1
   102    45   105    1
   103    45   106    1
   104    46    48    1
   105    46   107    1
   106    46   108    1
   107    47    50    1
   108    47   109    1
   109    48    50    1
   110    48    53    1
   111    48    54    1
   112    49   110    1
   113    49   111    1
   114    50   112    1
   115    50   113    1
   116    51   114    1
   117    51   115    1
   118    51   116    1
   119    52   117    1
   120    52   118    1
   121    52   119    1
   122    53   120    1
   123    53   121    1
   124    53   122    1
   125    55    57    1
   126    55   123    1
   127    56    58    1
   128    56   125    1
   129    57    59    1
   130    57   126    1
   131    58    60    1
   132    58   127    1
   133    59    62    1
   134    59   129    1
   135    60    64    1
   136    60   130    1
   137    61    62    1
   138    61    67    1
   139    61   131    1
   140    62   132    1
   141    63    64    1
   142    63    66    1
   143    63   133    1
   144    64   134    1
   145    65    68    1
   146    65   136    1
   147    66   138    1
   148    66   139    1
   149    66   140    1
   150    68    69    1
   151    68   144    1
   152    69    71    1
   153    69   145    1
   154    70    71    1
   155    70    72    1
   156    70   146    1
   157    71   148    1
   158    72   149    1
   159    72   150    1
   160    73    74    1
   161    73   151    1
   162    74    75    1
   163    74   154    1
   164    75    77    1
   165    75   156    1
   166    76    77    1
   167    76    78    1
   168    76   157    1
   169    77   158    1
   170    78   160    1
   171    78   161    1
   172    78   162    1
