@<TRIPOS>MOLECULE
IMPHY004756
 77 81 0 0 0
SMALL
GASTEIGER

@<TRIPOS>ATOM
      1 O           6.8671   -0.9276    0.0000 O.3     1  UNL1       -0.3366
      2 O           7.7331    1.5724    0.0000 O.3     1  UNL1       -0.3313
      3 O           5.1350   -0.9276    0.0000 O.3     1  UNL1       -0.3405
      4 O           5.1350    0.0725    0.0000 O.3     1  UNL1       -0.3863
      5 O           8.5991    0.0725    0.0000 O.3     1  UNL1       -0.4532
      6 O           5.1350    2.0724    0.0000 O.3     1  UNL1       -0.3865
      7 O           6.8671   -2.9276    0.0000 O.3     1  UNL1       -0.3841
      8 O           5.1350   -3.9276    0.0000 O.3     1  UNL1       -0.3864
      9 O           3.4030   -2.9276    0.0000 O.3     1  UNL1       -0.3865
     10 O           6.0010    3.5724    0.0000 O.3     1  UNL1       -0.3924
     11 O           2.5369   -1.4276    0.0000 O.3     1  UNL1       -0.3924
     12 O          11.1972    0.5724    0.0000 O.2     1  UNL1       -0.4507
     13 O           8.5991    2.0724    0.0000 O.2     1  UNL1       -0.2830
     14 O           9.4434    3.6039    0.0000 O.3     1  UNL1       -0.5058
     15 O          12.9832    3.6176    0.0000 O.3     1  UNL1       -0.5065
     16 O          12.0632   -2.9276    0.0000 O.3     1  UNL1       -0.4914
     17 O          10.3312   -3.9276    0.0000 O.3     1  UNL1       -0.5033
     18 C           6.8671    0.0725    0.0000 C.3     1  UNL1        0.1519
     19 C           6.0010    0.5724    0.0000 C.3     1  UNL1        0.1155
     20 C           6.0010    1.5724    0.0000 C.3     1  UNL1        0.1120
     21 C           6.0010   -1.4276    0.0000 C.3     1  UNL1        0.1886
     22 C           6.0010   -2.4276    0.0000 C.3     1  UNL1        0.1341
     23 C           7.7331    0.5724    0.0000 C.3     1  UNL1        0.2315
     24 C           6.8671    2.0724    0.0000 C.3     1  UNL1        0.1140
     25 C           5.1350   -2.9276    0.0000 C.3     1  UNL1        0.1141
     26 C           4.2690   -2.4276    0.0000 C.3     1  UNL1        0.1119
     27 C           4.2690   -1.4276    0.0000 C.3     1  UNL1        0.1130
     28 C           6.8671    3.0724    0.0000 C.3     1  UNL1        0.0731
     29 C           3.4030   -0.9276    0.0000 C.3     1  UNL1        0.0730
     30 C           9.4651    0.5724    0.0000 C.ar    1  UNL1        0.2138
     31 C          10.3312    0.0725    0.0000 C.ar    1  UNL1        0.1810
     32 C           9.4651    1.5724    0.0000 C.ar    1  UNL1        0.2382
     33 C          10.3312    2.0724    0.0000 C.ar    1  UNL1        0.1092
     34 C          10.3312   -0.9276    0.0000 C.ar    1  UNL1        0.0247
     35 C          11.1972    1.5724    0.0000 C.ar    1  UNL1        0.1465
     36 C          10.3151    3.1140    0.0000 C.ar    1  UNL1        0.1348
     37 C          12.1072    2.0793    0.0000 C.ar    1  UNL1        0.0231
     38 C          11.1972   -1.4276    0.0000 C.ar    1  UNL1       -0.0055
     39 C           9.4651   -1.4276    0.0000 C.ar    1  UNL1       -0.0473
     40 C          11.2131    3.6417    0.0000 C.ar    1  UNL1        0.0223
     41 C          12.1152    3.1209    0.0000 C.ar    1  UNL1        0.1239
     42 C          11.1972   -2.4276    0.0000 C.ar    1  UNL1        0.1619
     43 C           9.4651   -2.4276    0.0000 C.ar    1  UNL1       -0.0159
     44 C          10.3312   -2.9276    0.0000 C.ar    1  UNL1        0.1585
     45 C          12.9292   -2.4276    0.0000 C.3     1  UNL1        0.0790
     46 H           7.4040   -0.2376    0.0000 H       1  UNL1        0.0687
     47 H           6.0010   -0.0475    0.0000 H       1  UNL1        0.0648
     48 H           5.4641    1.2624    0.0000 H       1  UNL1        0.0647
     49 H           6.5380   -1.7376    0.0000 H       1  UNL1        0.0938
     50 H           6.0010   -3.0476    0.0000 H       1  UNL1        0.0671
     51 H           8.2700    0.8824    0.0000 H       1  UNL1        0.1084
     52 H           7.4040    2.3824    0.0000 H       1  UNL1        0.0647
     53 H           4.5981   -3.2376    0.0000 H       1  UNL1        0.0648
     54 H           3.7320   -2.1176    0.0000 H       1  UNL1        0.0647
     55 H           4.2690   -0.8076    0.0000 H       1  UNL1        0.0647
     56 H           7.4776    2.9648    0.0000 H       1  UNL1        0.0584
     57 H           7.0791    3.6551    0.0000 H       1  UNL1        0.0584
     58 H           3.8015   -0.4526    0.0000 H       1  UNL1        0.0584
     59 H           3.0044   -0.4526    0.0000 H       1  UNL1        0.0584
     60 H           4.5981    0.3824    0.0000 H       1  UNL1        0.2100
     61 H           5.1350    2.6924    0.0000 H       1  UNL1        0.2100
     62 H           7.4040   -2.6176    0.0000 H       1  UNL1        0.2101
     63 H           5.6720   -4.2376    0.0000 H       1  UNL1        0.2100
     64 H           3.4030   -3.5476    0.0000 H       1  UNL1        0.2100
     65 H           6.0010    4.1924    0.0000 H       1  UNL1        0.2095
     66 H           2.0000   -1.1176    0.0000 H       1  UNL1        0.2095
     67 H          12.6405    1.7631    0.0000 H       1  UNL1        0.0691
     68 H          11.7341   -1.1176    0.0000 H       1  UNL1        0.0662
     69 H           8.9282   -1.1176    0.0000 H       1  UNL1        0.0626
     70 H          11.2108    4.2617    0.0000 H       1  UNL1        0.0691
     71 H           8.9282   -2.7376    0.0000 H       1  UNL1        0.0655
     72 H           9.4362    4.2239    0.0000 H       1  UNL1        0.2922
     73 H          12.9856    4.2376    0.0000 H       1  UNL1        0.2921
     74 H          10.8681   -4.2376    0.0000 H       1  UNL1        0.2923
     75 H          13.2392   -2.9645    0.0000 H       1  UNL1        0.0660
     76 H          13.4662   -2.1176    0.0000 H       1  UNL1        0.0660
     77 H          12.6192   -1.8906    0.0000 H       1  UNL1        0.0660
@<TRIPOS>BOND
     1     1    18    1
     2    21     1    1
     3     2    23    1
     4     2    24    1
     5     3    21    1
     6     3    27    1
     7     4    19    1
     8     4    60    1
     9    23     5    1
    10     5    30    1
    11    20     6    1
    12     6    61    1
    13    22     7    1
    14     7    62    1
    15     8    25    1
    16     8    63    1
    17    26     9    1
    18     9    64    1
    19    10    28    1
    20    10    65    1
    21    11    29    1
    22    11    66    1
    23    12    31   ar
    24    12    35   ar
    25    13    32    2
    26    14    36    1
    27    14    72    1
    28    15    41    1
    29    15    73    1
    30    16    42    1
    31    16    45    1
    32    17    44    1
    33    17    74    1
    34    18    19    1
    35    18    23    1
    36    18    46    1
    37    19    20    1
    38    19    47    1
    39    20    24    1
    40    20    48    1
    41    21    22    1
    42    21    49    1
    43    22    25    1
    44    22    50    1
    45    23    51    1
    46    24    28    1
    47    24    52    1
    48    25    26    1
    49    25    53    1
    50    26    27    1
    51    26    54    1
    52    27    29    1
    53    27    55    1
    54    28    56    1
    55    28    57    1
    56    29    58    1
    57    29    59    1
    58    30    31   ar
    59    30    32   ar
    60    31    34    1
    61    32    33   ar
    62    33    35   ar
    63    33    36   ar
    64    34    38   ar
    65    34    39   ar
    66    35    37   ar
    67    36    40   ar
    68    37    41   ar
    69    37    67    1
    70    38    42   ar
    71    38    68    1
    72    39    43   ar
    73    39    69    1
    74    40    41   ar
    75    40    70    1
    76    42    44   ar
    77    43    44   ar
    78    43    71    1
    79    45    75    1
    80    45    76    1
    81    45    77    1
