@<TRIPOS>MOLECULE
IMPHY007136
 23 23 0 0 0
SMALL
GASTEIGER

@<TRIPOS>ATOM
      1 O           4.5981    2.8450    0.0000 O.3     1  UNL1       -0.3950
      2 O           2.8660   -3.1550    0.0000 O.3     1  UNL1       -0.5068
      3 C           2.8660    0.8450    0.0000 C.3     1  UNL1       -0.0256
      4 C           3.7320    1.3450    0.0000 C.3     1  UNL1       -0.0257
      5 C           2.8660   -0.1550    0.0000 C.ar    1  UNL1       -0.0471
      6 C           3.7320    2.3450    0.0000 C.3     1  UNL1        0.0445
      7 C           2.0000   -0.6550    0.0000 C.ar    1  UNL1       -0.0551
      8 C           3.7320   -0.6550    0.0000 C.ar    1  UNL1       -0.0551
      9 C           2.0000   -1.6550    0.0000 C.ar    1  UNL1       -0.0199
     10 C           3.7320   -1.6550    0.0000 C.ar    1  UNL1       -0.0199
     11 C           2.8660   -2.1550    0.0000 C.ar    1  UNL1        0.1169
     12 H           2.6540    1.4276    0.0000 H       1  UNL1        0.0314
     13 H           2.2554    0.7373    0.0000 H       1  UNL1        0.0314
     14 H           3.9441    0.7624    0.0000 H       1  UNL1        0.0290
     15 H           4.3426    1.4527    0.0000 H       1  UNL1        0.0290
     16 H           3.5200    2.9276    0.0000 H       1  UNL1        0.0557
     17 H           3.1215    2.2373    0.0000 H       1  UNL1        0.0557
     18 H           1.4631   -0.3450    0.0000 H       1  UNL1        0.0621
     19 H           4.2690   -0.3450    0.0000 H       1  UNL1        0.0621
     20 H           1.4631   -1.9650    0.0000 H       1  UNL1        0.0654
     21 H           4.2690   -1.9650    0.0000 H       1  UNL1        0.0654
     22 H           4.5981    3.4650    0.0000 H       1  UNL1        0.2094
     23 H           2.3291   -3.4650    0.0000 H       1  UNL1        0.2921
@<TRIPOS>BOND
     1     1     6    1
     2     1    22    1
     3     2    11    1
     4     2    23    1
     5     3     4    1
     6     3     5    1
     7     3    12    1
     8     3    13    1
     9     4     6    1
    10     4    14    1
    11     4    15    1
    12     5     7   ar
    13     5     8   ar
    14     6    16    1
    15     6    17    1
    16     7     9   ar
    17     7    18    1
    18     8    10   ar
    19     8    19    1
    20     9    11   ar
    21     9    20    1
    22    10    11   ar
    23    10    21    1
