@<TRIPOS>MOLECULE
IMPHY016800
 29 29 0 0 0
SMALL
GASTEIGER

@<TRIPOS>ATOM
      1 O           3.0000    2.3450    0.0000 O.3     1  UNL1       -0.3885
      2 C           3.0000    0.3450    0.0000 C.3     1  UNL1        0.0055
      3 C           2.1340   -0.1550    0.0000 C.3     1  UNL1       -0.0436
      4 C           3.0000    1.3450    0.0000 C.3     1  UNL1        0.0667
      5 C           2.1340   -1.1550    0.0000 C.3     1  UNL1       -0.0464
      6 C           3.0000   -1.6550    0.0000 C.3     1  UNL1       -0.0257
      7 C           3.8660   -0.1550    0.0000 C.2     1  UNL1       -0.0819
      8 C           3.8660   -1.1550    0.0000 C.2     1  UNL1       -0.0847
      9 C           4.0000    1.3450    0.0000 C.3     1  UNL1       -0.0358
     10 C           2.0000    1.3450    0.0000 C.3     1  UNL1       -0.0358
     11 C           3.0000   -2.6550    0.0000 C.3     1  UNL1       -0.0590
     12 H           3.5369    0.6550    0.0000 H       1  UNL1        0.0371
     13 H           1.9219    0.4276    0.0000 H       1  UNL1        0.0272
     14 H           1.5234   -0.2627    0.0000 H       1  UNL1        0.0272
     15 H           1.5234   -1.0473    0.0000 H       1  UNL1        0.0271
     16 H           1.9219   -1.7376    0.0000 H       1  UNL1        0.0271
     17 H           3.5369   -1.9650    0.0000 H       1  UNL1        0.0340
     18 H           4.4030    0.1550    0.0000 H       1  UNL1        0.0573
     19 H           4.4030   -1.4650    0.0000 H       1  UNL1        0.0572
     20 H           4.0000    0.7250    0.0000 H       1  UNL1        0.0257
     21 H           4.6200    1.3450    0.0000 H       1  UNL1        0.0257
     22 H           4.0000    1.9650    0.0000 H       1  UNL1        0.0257
     23 H           2.0000    1.9650    0.0000 H       1  UNL1        0.0257
     24 H           1.3800    1.3450    0.0000 H       1  UNL1        0.0257
     25 H           2.0000    0.7250    0.0000 H       1  UNL1        0.0257
     26 H           2.3800   -2.6550    0.0000 H       1  UNL1        0.0235
     27 H           3.0000   -3.2750    0.0000 H       1  UNL1        0.0235
     28 H           3.6200   -2.6550    0.0000 H       1  UNL1        0.0235
     29 H           3.5369    2.6550    0.0000 H       1  UNL1        0.2102
@<TRIPOS>BOND
     1     1     4    1
     2     1    29    1
     3     2     3    1
     4     2     4    1
     5     2     7    1
     6     2    12    1
     7     3     5    1
     8     3    13    1
     9     3    14    1
    10     4     9    1
    11     4    10    1
    12     5     6    1
    13     5    15    1
    14     5    16    1
    15     6     8    1
    16     6    11    1
    17     6    17    1
    18     7     8    2
    19     7    18    1
    20     8    19    1
    21     9    20    1
    22     9    21    1
    23     9    22    1
    24    10    23    1
    25    10    24    1
    26    10    25    1
    27    11    26    1
    28    11    27    1
    29    11    28    1
