@<TRIPOS>MOLECULE
IMPHY008213
 23 23 0 0 0
SMALL
GASTEIGER

@<TRIPOS>ATOM
      1 O           4.2690    1.7500    0.0000 O.3     1  UNL1       -0.4915
      2 O           2.5369    0.7500    0.0000 O.3     1  UNL1       -0.5033
      3 C           5.1350   -0.7500    0.0000 C.ar    1  UNL1       -0.0439
      4 C           6.0010   -1.2500    0.0000 C.3     1  UNL1       -0.0304
      5 C           5.1350    0.2500    0.0000 C.ar    1  UNL1       -0.0131
      6 C           4.2690   -1.2500    0.0000 C.ar    1  UNL1       -0.0549
      7 C           4.2690    0.7500    0.0000 C.ar    1  UNL1        0.1615
      8 C           3.4030    0.2500    0.0000 C.ar    1  UNL1        0.1585
      9 C           6.0010   -2.2500    0.0000 C.3     1  UNL1       -0.0613
     10 C           3.4030   -0.7500    0.0000 C.ar    1  UNL1       -0.0163
     11 C           5.1350    2.2500    0.0000 C.3     1  UNL1        0.0790
     12 H           6.6116   -1.3577    0.0000 H       1  UNL1        0.0311
     13 H           6.2131   -0.6674    0.0000 H       1  UNL1        0.0311
     14 H           5.6720    0.5600    0.0000 H       1  UNL1        0.0658
     15 H           4.2690   -1.8700    0.0000 H       1  UNL1        0.0621
     16 H           2.8660   -1.0600    0.0000 H       1  UNL1        0.0655
     17 H           5.3810   -2.2500    0.0000 H       1  UNL1        0.0233
     18 H           6.0010   -2.8700    0.0000 H       1  UNL1        0.0233
     19 H           6.6210   -2.2500    0.0000 H       1  UNL1        0.0233
     20 H           5.4450    1.7131    0.0000 H       1  UNL1        0.0660
     21 H           5.6720    2.5600    0.0000 H       1  UNL1        0.0660
     22 H           4.8250    2.7869    0.0000 H       1  UNL1        0.0660
     23 H           2.0000    0.4400    0.0000 H       1  UNL1        0.2923
@<TRIPOS>BOND
     1     1     7    1
     2     1    11    1
     3     2     8    1
     4     2    23    1
     5     3     4    1
     6     3     5   ar
     7     3     6   ar
     8     4     9    1
     9     4    12    1
    10     4    13    1
    11     5     7   ar
    12     5    14    1
    13     6    10   ar
    14     6    15    1
    15     7     8   ar
    16     8    10   ar
    17     9    17    1
    18     9    18    1
    19     9    19    1
    20    10    16    1
    21    11    20    1
    22    11    21    1
    23    11    22    1
