@<TRIPOS>MOLECULE
IMPHY015893
 23 23 0 0 0
SMALL
GASTEIGER

@<TRIPOS>ATOM
      1 O           3.7320    2.2500    0.0000 O.co2   1  UNL1       -0.5492
      2 O           4.5981    0.7500    0.0000 O.co2   1  UNL1       -0.5492
      3 C           2.8660    0.7500    0.0000 C.3     1  UNL1        0.0234
      4 C           2.0000    1.2500    0.0000 C.3     1  UNL1       -0.0439
      5 C           2.8660   -0.2500    0.0000 C.ar    1  UNL1       -0.0388
      6 C           2.0000    2.2500    0.0000 C.3     1  UNL1       -0.0644
      7 C           2.0000   -0.7500    0.0000 C.ar    1  UNL1       -0.0580
      8 C           3.7320   -0.7500    0.0000 C.ar    1  UNL1       -0.0580
      9 C           3.7320    1.2500    0.0000 C.2     1  UNL1        0.0491
     10 C           2.0000   -1.7500    0.0000 C.ar    1  UNL1       -0.0615
     11 C           3.7320   -1.7500    0.0000 C.ar    1  UNL1       -0.0615
     12 C           2.8660   -2.2500    0.0000 C.ar    1  UNL1       -0.0617
     13 H           2.8660    1.3700    0.0000 H       1  UNL1        0.0409
     14 H           1.3894    1.3577    0.0000 H       1  UNL1        0.0272
     15 H           1.7880    0.6674    0.0000 H       1  UNL1        0.0272
     16 H           2.6200    2.2500    0.0000 H       1  UNL1        0.0230
     17 H           2.0000    2.8700    0.0000 H       1  UNL1        0.0230
     18 H           1.3800    2.2500    0.0000 H       1  UNL1        0.0230
     19 H           1.4631   -0.4400    0.0000 H       1  UNL1        0.0620
     20 H           4.2690   -0.4400    0.0000 H       1  UNL1        0.0620
     21 H           1.4631   -2.0600    0.0000 H       1  UNL1        0.0618
     22 H           4.2690   -2.0600    0.0000 H       1  UNL1        0.0618
     23 H           2.8660   -2.8700    0.0000 H       1  UNL1        0.0618
@<TRIPOS>UNITY_ATOM_ATTR
1 1
charge -1
@<TRIPOS>BOND
     1     1     9   ar
     2     2     9   ar
     3     3     4    1
     4     3     5    1
     5     3     9    1
     6     3    13    1
     7     4     6    1
     8     4    14    1
     9     4    15    1
    10     5     7   ar
    11     5     8   ar
    12     6    16    1
    13     6    17    1
    14     6    18    1
    15     7    10   ar
    16     7    19    1
    17     8    11   ar
    18     8    20    1
    19    10    12   ar
    20    10    21    1
    21    11    12   ar
    22    11    22    1
    23    12    23    1
