@<TRIPOS>MOLECULE
IMPHY012158
 36 36 0 0 0
SMALL
GASTEIGER

@<TRIPOS>ATOM
      1 O           3.7601   -1.0141    0.0000 O.3     1  UNL1       -0.4613
      2 O           2.0000   -0.7354    0.0000 O.2     1  UNL1       -0.2508
      3 C           4.5691   -0.4263    0.0000 C.3     1  UNL1        0.1036
      4 C           5.5202   -0.7354    0.0000 C.3     1  UNL1       -0.0157
      5 C           6.2633   -0.0662    0.0000 C.3     1  UNL1       -0.0497
      6 C           4.2601    0.5247    0.0000 C.3     1  UNL1       -0.0056
      7 C           7.2144   -0.3752    0.0000 C.3     1  UNL1       -0.0529
      8 C           7.9575    0.2939    0.0000 C.3     1  UNL1       -0.0531
      9 C           3.2601    0.5247    0.0000 C.3     1  UNL1        0.0483
     10 C           8.9086   -0.0151    0.0000 C.3     1  UNL1       -0.0531
     11 C           9.6517    0.6540    0.0000 C.3     1  UNL1       -0.0533
     12 C           2.9511   -0.4263    0.0000 C.2     1  UNL1        0.3075
     13 C          10.6028    0.3450    0.0000 C.3     1  UNL1       -0.0559
     14 C          11.3459    1.0141    0.0000 C.3     1  UNL1       -0.0653
     15 H           4.6661   -1.0387    0.0000 H       1  UNL1        0.0734
     16 H           5.2291   -1.2828    0.0000 H       1  UNL1        0.0301
     17 H           6.0087   -1.1171    0.0000 H       1  UNL1        0.0301
     18 H           6.5544    0.4812    0.0000 H       1  UNL1        0.0266
     19 H           5.7747    0.3155    0.0000 H       1  UNL1        0.0266
     20 H           4.8665    0.6536    0.0000 H       1  UNL1        0.0306
     21 H           4.1953    1.1413    0.0000 H       1  UNL1        0.0306
     22 H           6.9233   -0.9227    0.0000 H       1  UNL1        0.0265
     23 H           7.7029   -0.7569    0.0000 H       1  UNL1        0.0265
     24 H           8.2486    0.8413    0.0000 H       1  UNL1        0.0265
     25 H           7.4689    0.6756    0.0000 H       1  UNL1        0.0265
     26 H           3.3249    1.1413    0.0000 H       1  UNL1        0.0379
     27 H           2.6536    0.6536    0.0000 H       1  UNL1        0.0379
     28 H           8.6175   -0.5626    0.0000 H       1  UNL1        0.0265
     29 H           9.3971   -0.3968    0.0000 H       1  UNL1        0.0265
     30 H           9.9428    1.2014    0.0000 H       1  UNL1        0.0265
     31 H           9.1631    1.0357    0.0000 H       1  UNL1        0.0265
     32 H          10.3117   -0.2024    0.0000 H       1  UNL1        0.0263
     33 H          11.0913   -0.0367    0.0000 H       1  UNL1        0.0263
     34 H          11.7608    0.5534    0.0000 H       1  UNL1        0.0230
     35 H          11.8066    1.4290    0.0000 H       1  UNL1        0.0230
     36 H          10.9310    1.4749    0.0000 H       1  UNL1        0.0230
@<TRIPOS>BOND
     1     1     3    1
     2     1    12    1
     3     2    12    2
     4     3     4    1
     5     3     6    1
     6     3    15    1
     7     4     5    1
     8     4    16    1
     9     4    17    1
    10     5     7    1
    11     5    18    1
    12     5    19    1
    13     6     9    1
    14     6    20    1
    15     6    21    1
    16     7     8    1
    17     7    22    1
    18     7    23    1
    19     8    10    1
    20     8    24    1
    21     8    25    1
    22     9    12    1
    23     9    26    1
    24     9    27    1
    25    10    11    1
    26    10    28    1
    27    10    29    1
    28    11    13    1
    29    11    30    1
    30    11    31    1
    31    13    14    1
    32    13    32    1
    33    13    33    1
    34    14    34    1
    35    14    35    1
    36    14    36    1
