@<TRIPOS>MOLECULE
IMPHY003342
 51 53 0 0 0
SMALL
GASTEIGER

@<TRIPOS>ATOM
      1 O           3.8000   -2.4299    0.0000 O.3     1  UNL1       -0.3867
      2 O           6.3981   -1.9299    0.0000 O.2     1  UNL1       -0.2919
      3 O           5.5442    2.6394    0.0000 O.3     1  UNL1       -0.5065
      4 C           3.8000   -1.4299    0.0000 C.3     1  UNL1        0.0874
      5 C           3.8000   -0.4299    0.0000 C.3     1  UNL1        0.0234
      6 C           2.9061   -1.9646    0.0000 C.3     1  UNL1       -0.0048
      7 C           2.9061    0.1048    0.0000 C.3     1  UNL1       -0.0409
      8 C           2.0000   -1.4507    0.0000 C.3     1  UNL1       -0.0452
      9 C           2.0000   -0.4091    0.0000 C.3     1  UNL1       -0.0516
     10 C           4.6660   -1.9299    0.0000 C.3     1  UNL1        0.0407
     11 C           4.6660    0.0701    0.0000 C.ar    1  UNL1       -0.0248
     12 C           3.8000    0.5701    0.0000 C.3     1  UNL1       -0.0528
     13 C           2.4161   -2.8363    0.0000 C.3     1  UNL1       -0.0572
     14 C           3.0911   -2.9473    0.0000 C.3     1  UNL1       -0.0572
     15 C           5.5321   -0.4299    0.0000 C.ar    1  UNL1        0.0218
     16 C           5.5321   -1.4299    0.0000 C.2     1  UNL1        0.1662
     17 C           4.6500    1.1116    0.0000 C.ar    1  UNL1       -0.0154
     18 C           6.4421    0.0770    0.0000 C.ar    1  UNL1       -0.0441
     19 C           5.5480    1.6394    0.0000 C.ar    1  UNL1        0.1206
     20 C           6.4501    1.1186    0.0000 C.ar    1  UNL1       -0.0027
     21 C           7.3180    1.6152    0.0000 C.3     1  UNL1       -0.0181
     22 C           8.1821    1.1119    0.0000 C.3     1  UNL1       -0.0585
     23 C           7.3219    2.6152    0.0000 C.3     1  UNL1       -0.0585
     24 H           3.3107    0.5746    0.0000 H       1  UNL1        0.0275
     25 H           2.5124    0.5838    0.0000 H       1  UNL1        0.0275
     26 H           1.3891   -1.3446    0.0000 H       1  UNL1        0.0271
     27 H           1.7909   -2.0344    0.0000 H       1  UNL1        0.0271
     28 H           1.7909    0.1746    0.0000 H       1  UNL1        0.0266
     29 H           1.3891   -0.5152    0.0000 H       1  UNL1        0.0266
     30 H           4.2675   -2.4048    0.0000 H       1  UNL1        0.0374
     31 H           5.0646   -2.4048    0.0000 H       1  UNL1        0.0374
     32 H           4.4200    0.5701    0.0000 H       1  UNL1        0.0239
     33 H           3.8000    1.1901    0.0000 H       1  UNL1        0.0239
     34 H           3.1800    0.5701    0.0000 H       1  UNL1        0.0239
     35 H           1.8756   -2.5325    0.0000 H       1  UNL1        0.0236
     36 H           2.1123   -3.3768    0.0000 H       1  UNL1        0.0236
     37 H           2.9566   -3.1401    0.0000 H       1  UNL1        0.0236
     38 H           2.4818   -3.0620    0.0000 H       1  UNL1        0.0236
     39 H           3.2058   -3.5566    0.0000 H       1  UNL1        0.0236
     40 H           3.7004   -2.8326    0.0000 H       1  UNL1        0.0236
     41 H           4.3369   -2.7399    0.0000 H       1  UNL1        0.2102
     42 H           4.1095    1.4154    0.0000 H       1  UNL1        0.0657
     43 H           6.9754   -0.2392    0.0000 H       1  UNL1        0.0629
     44 H           7.8562    1.9231    0.0000 H       1  UNL1        0.0345
     45 H           5.0060    2.9473    0.0000 H       1  UNL1        0.2921
     46 H           7.8701    0.5761    0.0000 H       1  UNL1        0.0235
     47 H           7.9419    2.6128    0.0000 H       1  UNL1        0.0235
     48 H           8.7179    0.7998    0.0000 H       1  UNL1        0.0235
     49 H           8.4942    1.6476    0.0000 H       1  UNL1        0.0235
     50 H           7.3243    3.2352    0.0000 H       1  UNL1        0.0235
     51 H           6.7019    2.6176    0.0000 H       1  UNL1        0.0235
@<TRIPOS>BOND
     1     4     1    1
     2     1    41    1
     3     2    16    2
     4     3    19    1
     5     3    45    1
     6     4     5    1
     7     4     6    1
     8     4    10    1
     9     5     7    1
    10     5    11    1
    11     5    12    1
    12     6     8    1
    13     6    13    1
    14     6    14    1
    15     7     9    1
    16     7    24    1
    17     7    25    1
    18     8     9    1
    19     8    26    1
    20     8    27    1
    21     9    28    1
    22     9    29    1
    23    10    16    1
    24    10    30    1
    25    10    31    1
    26    11    15   ar
    27    11    17   ar
    28    12    32    1
    29    12    33    1
    30    12    34    1
    31    13    35    1
    32    13    36    1
    33    13    37    1
    34    14    38    1
    35    14    39    1
    36    14    40    1
    37    15    16    1
    38    15    18   ar
    39    17    19   ar
    40    17    42    1
    41    18    20   ar
    42    18    43    1
    43    19    20   ar
    44    20    21    1
    45    21    22    1
    46    21    23    1
    47    21    44    1
    48    22    46    1
    49    22    48    1
    50    22    49    1
    51    23    47    1
    52    23    50    1
    53    23    51    1
