@<TRIPOS>MOLECULE
IMPHY005295
 77 80 0 0 0
SMALL
GASTEIGER

@<TRIPOS>ATOM
      1 O           7.9174   -2.2889    0.0000 O.3     1  UNL1       -0.3837
      2 O           2.5405   -1.2497    0.0000 O.3     1  UNL1       -0.3892
      3 O           2.5244   -3.3413    0.0000 O.3     1  UNL1       -0.3892
      4 O           6.1733   -4.3582    0.0000 O.2     1  UNL1       -0.2924
      5 O          10.8207    0.4282    0.0000 O.3     1  UNL1       -0.3915
      6 O          12.0633    4.2303    0.0000 O.3     1  UNL1       -0.3891
      7 C           7.9174   -0.2889    0.0000 C.3     1  UNL1        0.0038
      8 C           7.9174   -1.2889    0.0000 C.3     1  UNL1        0.0933
      9 C           8.8637    0.0158    0.0000 C.3     1  UNL1       -0.0277
     10 C           6.1854   -1.2889    0.0000 C.3     1  UNL1       -0.0107
     11 C           5.2754   -1.7958    0.0000 C.3     1  UNL1       -0.0132
     12 C           7.0514   -1.7889    0.0000 C.2     1  UNL1       -0.0310
     13 C           7.0514    0.2111    0.0000 C.3     1  UNL1       -0.0439
     14 C           8.8637   -1.5937    0.0000 C.3     1  UNL1       -0.0193
     15 C           6.1854   -0.2889    0.0000 C.3     1  UNL1       -0.0453
     16 C           9.4473   -0.7889    0.0000 C.3     1  UNL1       -0.0464
     17 C           5.2674   -2.8374    0.0000 C.3     1  UNL1        0.0299
     18 C           9.1743    0.9663    0.0000 C.3     1  UNL1       -0.0144
     19 C           7.9174    0.7111    0.0000 C.3     1  UNL1       -0.0564
     20 C           4.3486   -1.2317    0.0000 C.3     1  UNL1       -0.0178
     21 C           7.0675   -2.8304    0.0000 C.2     1  UNL1       -0.0167
     22 C           4.3319   -3.3871    0.0000 C.3     1  UNL1       -0.0141
     23 C           5.2831   -0.7958    0.0000 C.3     1  UNL1       -0.0583
     24 C           6.1694   -3.3582    0.0000 C.2     1  UNL1        0.1598
     25 C           3.4007   -1.7596    0.0000 C.3     1  UNL1        0.0816
     26 C           3.3923   -2.8446    0.0000 C.3     1  UNL1        0.0817
     27 C          10.1528    1.1725    0.0000 C.3     1  UNL1        0.0582
     28 C           8.5065    1.7106    0.0000 C.3     1  UNL1       -0.0598
     29 C          10.4635    2.1231    0.0000 C.3     1  UNL1       -0.0240
     30 C          11.4420    2.3293    0.0000 C.3     1  UNL1       -0.0222
     31 C          11.7527    3.2798    0.0000 C.3     1  UNL1        0.0606
     32 C          12.7032    2.9691    0.0000 C.3     1  UNL1       -0.0363
     33 C          10.8021    3.5905    0.0000 C.3     1  UNL1       -0.0363
     34 H           9.7034    0.1477    0.0000 H       1  UNL1        0.0310
     35 H           6.9215   -0.8639    0.0000 H       1  UNL1        0.0352
     36 H           7.4500    0.6860    0.0000 H       1  UNL1        0.0272
     37 H           6.6529    0.6860    0.0000 H       1  UNL1        0.0272
     38 H           8.6126   -2.1606    0.0000 H       1  UNL1        0.0296
     39 H           9.4010   -1.9029    0.0000 H       1  UNL1        0.0296
     40 H           5.9733    0.2937    0.0000 H       1  UNL1        0.0271
     41 H           5.5748   -0.3966    0.0000 H       1  UNL1        0.0271
     42 H           9.9081   -1.2037    0.0000 H       1  UNL1        0.0269
     43 H           9.9081   -0.3742    0.0000 H       1  UNL1        0.0269
     44 H           5.2706   -3.6874    0.0000 H       1  UNL1        0.0387
     45 H           8.5676    0.8385    0.0000 H       1  UNL1        0.0326
     46 H           8.5374    0.7111    0.0000 H       1  UNL1        0.0236
     47 H           7.9174    1.3311    0.0000 H       1  UNL1        0.0236
     48 H           7.2974    0.7111    0.0000 H       1  UNL1        0.0236
     49 H           4.7568   -0.7650    0.0000 H       1  UNL1        0.0297
     50 H           3.9586   -0.7497    0.0000 H       1  UNL1        0.0297
     51 H           7.6080   -3.1342    0.0000 H       1  UNL1        0.0653
     52 H           3.9346   -3.8631    0.0000 H       1  UNL1        0.0298
     53 H           4.7329   -3.8600    0.0000 H       1  UNL1        0.0298
     54 H           5.9031   -0.8006    0.0000 H       1  UNL1        0.0235
     55 H           5.2879   -0.1758    0.0000 H       1  UNL1        0.0235
     56 H           4.6631   -0.7910    0.0000 H       1  UNL1        0.0235
     57 H           2.8608   -2.0644    0.0000 H       1  UNL1        0.0619
     58 H           8.4544   -2.5989    0.0000 H       1  UNL1        0.2106
     59 H           3.3911   -3.4646    0.0000 H       1  UNL1        0.0619
     60 H           9.9602    0.5832    0.0000 H       1  UNL1        0.0596
     61 H           8.9680    2.1247    0.0000 H       1  UNL1        0.0233
     62 H           8.0924    2.1721    0.0000 H       1  UNL1        0.0233
     63 H           8.0450    1.2966    0.0000 H       1  UNL1        0.0233
     64 H          10.4429    2.7427    0.0000 H       1  UNL1        0.0291
     65 H           9.8497    2.2104    0.0000 H       1  UNL1        0.0291
     66 H           2.0000   -1.5534    0.0000 H       1  UNL1        0.2099
     67 H           2.5220   -3.9612    0.0000 H       1  UNL1        0.2099
     68 H          11.4273    0.5561    0.0000 H       1  UNL1        0.2098
     69 H          11.4626    1.7096    0.0000 H       1  UNL1        0.0293
     70 H          12.0558    2.2419    0.0000 H       1  UNL1        0.0293
     71 H          10.9948    4.1798    0.0000 H       1  UNL1        0.0257
     72 H          10.2128    3.7831    0.0000 H       1  UNL1        0.0257
     73 H          10.6095    3.0011    0.0000 H       1  UNL1        0.0257
     74 H          12.5106    2.3798    0.0000 H       1  UNL1        0.0257
     75 H          13.2925    2.7765    0.0000 H       1  UNL1        0.0257
     76 H          12.8958    3.5585    0.0000 H       1  UNL1        0.0257
     77 H          12.6700    4.3582    0.0000 H       1  UNL1        0.2101
@<TRIPOS>BOND
     1     8     1    1
     2     1    58    1
     3    25     2    1
     4     2    66    1
     5    26     3    1
     6     3    67    1
     7     4    24    2
     8    27     5    1
     9     5    68    1
    10     6    31    1
    11     6    77    1
    12     7     8    1
    13     7     9    1
    14     7    13    1
    15     7    19    1
    16     8    12    1
    17     8    14    1
    18     9    16    1
    19     9    18    1
    20     9    34    1
    21    10    11    1
    22    10    12    1
    23    10    15    1
    24    10    35    1
    25    11    17    1
    26    11    20    1
    27    11    23    1
    28    12    21    2
    29    13    15    1
    30    13    36    1
    31    13    37    1
    32    14    16    1
    33    14    38    1
    34    14    39    1
    35    15    40    1
    36    15    41    1
    37    16    42    1
    38    16    43    1
    39    17    22    1
    40    17    24    1
    41    17    44    1
    42    18    27    1
    43    18    28    1
    44    18    45    1
    45    19    46    1
    46    19    47    1
    47    19    48    1
    48    20    25    1
    49    20    49    1
    50    20    50    1
    51    21    24    1
    52    21    51    1
    53    22    26    1
    54    22    52    1
    55    22    53    1
    56    23    54    1
    57    23    55    1
    58    23    56    1
    59    25    26    1
    60    25    57    1
    61    26    59    1
    62    27    29    1
    63    27    60    1
    64    28    61    1
    65    28    62    1
    66    28    63    1
    67    29    30    1
    68    29    64    1
    69    29    65    1
    70    30    31    1
    71    30    69    1
    72    30    70    1
    73    31    32    1
    74    31    33    1
    75    32    74    1
    76    32    75    1
    77    32    76    1
    78    33    71    1
    79    33    72    1
    80    33    73    1
