@<TRIPOS>MOLECULE
IMPHY006089
 58 61 0 0 0
SMALL
GASTEIGER

@<TRIPOS>ATOM
      1 O           3.9061   -0.8017    0.0000 O.3     1  UNL1       -0.4811
      2 O           7.4260   -0.8017    0.0000 O.2     1  UNL1       -0.4616
      3 O           5.6660    2.2329    0.0000 O.3     1  UNL1       -0.5052
      4 O           7.4144    2.2675    0.0000 O.2     1  UNL1       -0.2863
      5 O          10.0680   -0.2396    0.0000 O.3     1  UNL1       -0.5060
      6 O          11.7884    2.7671    0.0000 O.3     1  UNL1       -0.4950
      7 C           3.0000   -0.2879    0.0000 C.3     1  UNL1        0.1235
      8 C           4.8000   -0.2671    0.0000 C.ar    1  UNL1        0.1393
      9 C           5.6660   -0.7671    0.0000 C.ar    1  UNL1        0.0417
     10 C           4.8000    0.7329    0.0000 C.ar    1  UNL1        0.0591
     11 C           6.5320   -0.2671    0.0000 C.ar    1  UNL1        0.1489
     12 C           6.5320    0.7329    0.0000 C.ar    1  UNL1        0.1069
     13 C           3.0000    0.7537    0.0000 C.2     1  UNL1       -0.0408
     14 C           5.6660    1.2329    0.0000 C.ar    1  UNL1        0.1418
     15 C           3.9061    1.2676    0.0000 C.2     1  UNL1       -0.0478
     16 C           5.6660   -1.7671    0.0000 C.3     1  UNL1       -0.0022
     17 C           2.0000   -0.2917    0.0000 C.3     1  UNL1       -0.0215
     18 C           2.5033   -1.1558    0.0000 C.3     1  UNL1       -0.0215
     19 C           7.4260    1.2676    0.0000 C.ar    1  UNL1        0.2038
     20 C           8.3321    0.7537    0.0000 C.ar    1  UNL1        0.0679
     21 C           4.8000   -2.2671    0.0000 C.2     1  UNL1       -0.0807
     22 C           8.3321   -0.2879    0.0000 C.ar    1  UNL1        0.1040
     23 C           9.1962    1.2571    0.0000 C.ar    1  UNL1        0.0304
     24 C           4.8000   -3.2671    0.0000 C.2     1  UNL1       -0.0793
     25 C          10.0641    0.7604    0.0000 C.ar    1  UNL1        0.1282
     26 C           9.1923    2.2571    0.0000 C.ar    1  UNL1       -0.0469
     27 C           3.9340   -3.7671    0.0000 C.3     1  UNL1       -0.0440
     28 C           5.6660   -3.7671    0.0000 C.3     1  UNL1       -0.0440
     29 C          10.9282    1.2638    0.0000 C.ar    1  UNL1        0.0221
     30 C          10.0564    2.7604    0.0000 C.ar    1  UNL1       -0.0191
     31 C          10.9243    2.2638    0.0000 C.ar    1  UNL1        0.1236
     32 C          11.7846    3.7671    0.0000 C.3     1  UNL1        0.0788
     33 H           2.4643    1.0658    0.0000 H       1  UNL1        0.0611
     34 H           3.9132    1.8876    0.0000 H       1  UNL1        0.0624
     35 H           5.8781   -2.3497    0.0000 H       1  UNL1        0.0358
     36 H           6.2766   -1.6594    0.0000 H       1  UNL1        0.0358
     37 H           1.9976    0.3283    0.0000 H       1  UNL1        0.0271
     38 H           1.3800   -0.2941    0.0000 H       1  UNL1        0.0271
     39 H           2.0024   -0.9117    0.0000 H       1  UNL1        0.0271
     40 H           1.9652   -0.8479    0.0000 H       1  UNL1        0.0271
     41 H           2.1954   -1.6940    0.0000 H       1  UNL1        0.0271
     42 H           3.0415   -1.4638    0.0000 H       1  UNL1        0.0271
     43 H           4.2631   -1.9571    0.0000 H       1  UNL1        0.0575
     44 H           8.8678   -0.6000    0.0000 H       1  UNL1        0.1037
     45 H           5.1291    2.5429    0.0000 H       1  UNL1        0.2922
     46 H           8.6542    2.5650    0.0000 H       1  UNL1        0.0626
     47 H           3.6240   -3.2301    0.0000 H       1  UNL1        0.0274
     48 H           5.3560   -4.3040    0.0000 H       1  UNL1        0.0274
     49 H           6.2030   -4.0771    0.0000 H       1  UNL1        0.0274
     50 H           5.9760   -3.2301    0.0000 H       1  UNL1        0.0274
     51 H           3.3970   -4.0771    0.0000 H       1  UNL1        0.0274
     52 H           4.2440   -4.3040    0.0000 H       1  UNL1        0.0274
     53 H          11.4663    0.9558    0.0000 H       1  UNL1        0.0691
     54 H          10.0540    3.3804    0.0000 H       1  UNL1        0.0654
     55 H          10.6061   -0.5475    0.0000 H       1  UNL1        0.2922
     56 H          12.4046    3.7695    0.0000 H       1  UNL1        0.0660
     57 H          11.7822    4.3871    0.0000 H       1  UNL1        0.0660
     58 H          11.1646    3.7647    0.0000 H       1  UNL1        0.0660
@<TRIPOS>BOND
     1     1     7    1
     2     1     8    1
     3     2    11   ar
     4     2    22   ar
     5     3    14    1
     6     3    45    1
     7     4    19    2
     8     5    25    1
     9     5    55    1
    10     6    31    1
    11     6    32    1
    12     7    13    1
    13     7    17    1
    14     7    18    1
    15     8     9   ar
    16     8    10   ar
    17     9    11   ar
    18     9    16    1
    19    10    14   ar
    20    10    15    1
    21    11    12   ar
    22    12    14   ar
    23    12    19   ar
    24    13    15    2
    25    13    33    1
    26    15    34    1
    27    16    21    1
    28    16    35    1
    29    16    36    1
    30    17    37    1
    31    17    38    1
    32    17    39    1
    33    18    40    1
    34    18    41    1
    35    18    42    1
    36    19    20   ar
    37    20    22   ar
    38    20    23    1
    39    21    24    2
    40    21    43    1
    41    22    44    1
    42    23    25   ar
    43    23    26   ar
    44    24    27    1
    45    24    28    1
    46    25    29   ar
    47    26    30   ar
    48    26    46    1
    49    27    47    1
    50    27    51    1
    51    27    52    1
    52    28    48    1
    53    28    49    1
    54    28    50    1
    55    29    31   ar
    56    29    53    1
    57    30    31   ar
    58    30    54    1
    59    32    56    1
    60    32    57    1
    61    32    58    1
