@<TRIPOS>MOLECULE
IMPHY001096
 58 63 0 0 0
SMALL
GASTEIGER

@<TRIPOS>ATOM
      1 O           7.8167    1.2621    0.0000 O.3     1  UNL1       -0.5054
      2 O          10.5160   -1.2621    0.0000 O.3     1  UNL1       -0.5054
      3 O           6.0682    1.2275    0.0000 O.2     1  UNL1       -0.2864
      4 O          12.2644   -1.2275    0.0000 O.2     1  UNL1       -0.2864
      5 O           6.0682   -2.7725    0.0000 O.2     1  UNL1       -0.2866
      6 O          12.2644    2.7725    0.0000 O.2     1  UNL1       -0.2866
      7 O           4.3198    1.2621    0.0000 O.3     1  UNL1       -0.5059
      8 O          14.0128   -1.2621    0.0000 O.3     1  UNL1       -0.5059
      9 O           2.5381   -1.7966    0.0000 O.3     1  UNL1       -0.5066
     10 O          15.7945    1.7966    0.0000 O.3     1  UNL1       -0.5066
     11 C           8.7343   -0.2517    0.0000 C.ar    1  UNL1        0.0310
     12 C           9.5984    0.2517    0.0000 C.ar    1  UNL1        0.0310
     13 C          11.3984    0.2725    0.0000 C.ar    1  UNL1        0.0752
     14 C           6.9343   -0.2725    0.0000 C.ar    1  UNL1        0.0752
     15 C           9.5984    1.2933    0.0000 C.ar    1  UNL1       -0.0384
     16 C           8.7343   -1.2933    0.0000 C.ar    1  UNL1       -0.0384
     17 C           6.9343   -1.2725    0.0000 C.ar    1  UNL1        0.0369
     18 C          11.3984    1.2725    0.0000 C.ar    1  UNL1        0.0369
     19 C          10.5044   -0.2622    0.0000 C.ar    1  UNL1        0.1364
     20 C           7.8282    0.2622    0.0000 C.ar    1  UNL1        0.1364
     21 C           7.8282   -1.8071    0.0000 C.ar    1  UNL1       -0.0465
     22 C          10.5044    1.8071    0.0000 C.ar    1  UNL1       -0.0465
     23 C           6.0682    0.2275    0.0000 C.2     1  UNL1        0.2015
     24 C          12.2644   -0.2275    0.0000 C.2     1  UNL1        0.2015
     25 C          13.1304    0.2725    0.0000 C.ar    1  UNL1        0.0748
     26 C           5.2022   -0.2725    0.0000 C.ar    1  UNL1        0.0748
     27 C           5.2022   -1.2725    0.0000 C.ar    1  UNL1        0.0400
     28 C          13.1304    1.2725    0.0000 C.ar    1  UNL1        0.0400
     29 C          12.2644    1.7725    0.0000 C.2     1  UNL1        0.1949
     30 C           6.0682   -1.7725    0.0000 C.2     1  UNL1        0.1949
     31 C           8.7343    1.7966    0.0000 C.3     1  UNL1       -0.0390
     32 C           9.5984   -1.7966    0.0000 C.3     1  UNL1       -0.0390
     33 C          14.0244   -0.2622    0.0000 C.ar    1  UNL1        0.1318
     34 C           4.3083    0.2622    0.0000 C.ar    1  UNL1        0.1318
     35 C          14.0244    1.8071    0.0000 C.ar    1  UNL1       -0.0084
     36 C           4.3083   -1.8071    0.0000 C.ar    1  UNL1       -0.0084
     37 C          14.9304    1.2933    0.0000 C.ar    1  UNL1        0.1210
     38 C           3.4022   -1.2933    0.0000 C.ar    1  UNL1        0.1210
     39 C           3.4022   -0.2517    0.0000 C.ar    1  UNL1        0.0221
     40 C          14.9304    0.2517    0.0000 C.ar    1  UNL1        0.0221
     41 H          10.5116    2.4271    0.0000 H       1  UNL1        0.0628
     42 H           7.8210   -2.4271    0.0000 H       1  UNL1        0.0628
     43 H           9.0464    2.3324    0.0000 H       1  UNL1        0.0278
     44 H           9.2863   -2.3324    0.0000 H       1  UNL1        0.0278
     45 H          10.1341   -2.1087    0.0000 H       1  UNL1        0.0278
     46 H           9.9105   -1.2609    0.0000 H       1  UNL1        0.0278
     47 H           8.1985    2.1087    0.0000 H       1  UNL1        0.0278
     48 H           8.4222    1.2609    0.0000 H       1  UNL1        0.0278
     49 H          14.0172    2.4271    0.0000 H       1  UNL1        0.0661
     50 H           4.3154   -2.4271    0.0000 H       1  UNL1        0.0661
     51 H           7.2762    1.5659    0.0000 H       1  UNL1        0.2922
     52 H          11.0565   -1.5659    0.0000 H       1  UNL1        0.2922
     53 H          15.4662   -0.0604    0.0000 H       1  UNL1        0.0691
     54 H           2.8665    0.0604    0.0000 H       1  UNL1        0.0691
     55 H          14.5461   -1.5783    0.0000 H       1  UNL1        0.2922
     56 H           3.7865    1.5783    0.0000 H       1  UNL1        0.2922
     57 H          16.3327    1.4887    0.0000 H       1  UNL1        0.2921
     58 H           2.0000   -1.4887    0.0000 H       1  UNL1        0.2921
@<TRIPOS>BOND
     1     1    20    1
     2     1    51    1
     3     2    19    1
     4     2    52    1
     5     3    23    2
     6     4    24    2
     7     5    30    2
     8     6    29    2
     9     7    34    1
    10     7    56    1
    11     8    33    1
    12     8    55    1
    13     9    38    1
    14     9    58    1
    15    10    37    1
    16    10    57    1
    17    11    12    1
    18    11    16   ar
    19    11    20   ar
    20    12    15   ar
    21    12    19   ar
    22    13    18   ar
    23    13    19   ar
    24    13    24    1
    25    14    17   ar
    26    14    20   ar
    27    14    23    1
    28    15    22   ar
    29    15    31    1
    30    16    21   ar
    31    16    32    1
    32    17    21   ar
    33    17    30    1
    34    18    22   ar
    35    18    29    1
    36    21    42    1
    37    22    41    1
    38    23    26    1
    39    24    25    1
    40    25    28   ar
    41    25    33   ar
    42    26    27   ar
    43    26    34   ar
    44    27    30    1
    45    27    36   ar
    46    28    29    1
    47    28    35   ar
    48    31    43    1
    49    31    47    1
    50    31    48    1
    51    32    44    1
    52    32    45    1
    53    32    46    1
    54    33    40   ar
    55    34    39   ar
    56    35    37   ar
    57    35    49    1
    58    36    38   ar
    59    36    50    1
    60    37    40   ar
    61    38    39   ar
    62    39    54    1
    63    40    53    1
