@<TRIPOS>MOLECULE
IMPHY008190
 57 60 0 0 0
SMALL
GASTEIGER

@<TRIPOS>ATOM
      1 O          10.4366    1.3006    0.0000 O.3     1  UNL1       -0.4811
      2 O           6.9006    1.3284    0.0000 O.2     1  UNL1       -0.4613
      3 O           8.6605   -1.7063    0.0000 O.3     1  UNL1       -0.4939
      4 O           6.9121   -1.7409    0.0000 O.2     1  UNL1       -0.2863
      5 O           2.5381   -2.2404    0.0000 O.3     1  UNL1       -0.5068
      6 C          10.4446    2.3422    0.0000 C.3     1  UNL1        0.1235
      7 C           9.5266    0.7937    0.0000 C.ar    1  UNL1        0.1393
      8 C           8.6605    1.2937    0.0000 C.ar    1  UNL1        0.0599
      9 C           9.5266   -0.2063    0.0000 C.ar    1  UNL1        0.0411
     10 C           7.7945    0.7937    0.0000 C.ar    1  UNL1        0.1526
     11 C           7.7945   -0.2063    0.0000 C.ar    1  UNL1        0.1071
     12 C           9.5425    2.8630    0.0000 C.2     1  UNL1       -0.0408
     13 C           8.6605   -0.7063    0.0000 C.ar    1  UNL1        0.1414
     14 C           8.6445    2.3352    0.0000 C.2     1  UNL1       -0.0478
     15 C          10.9479    3.2063    0.0000 C.3     1  UNL1       -0.0215
     16 C          11.4446    2.3383    0.0000 C.3     1  UNL1       -0.0215
     17 C          10.3926   -0.7063    0.0000 C.3     1  UNL1       -0.0023
     18 C           6.9006   -0.7409    0.0000 C.ar    1  UNL1        0.2037
     19 C           5.9945   -0.2271    0.0000 C.ar    1  UNL1        0.0644
     20 C          10.3926   -1.7063    0.0000 C.2     1  UNL1       -0.0807
     21 C           5.9945    0.8145    0.0000 C.ar    1  UNL1        0.1039
     22 C           5.1304   -0.7304    0.0000 C.ar    1  UNL1       -0.0110
     23 C          11.2586   -2.2063    0.0000 C.2     1  UNL1       -0.0793
     24 C           9.5266   -2.2063    0.0000 C.3     1  UNL1        0.0788
     25 C           5.1343   -1.7304    0.0000 C.ar    1  UNL1       -0.0504
     26 C           4.2625   -0.2338    0.0000 C.ar    1  UNL1       -0.0504
     27 C          11.2586   -3.2063    0.0000 C.3     1  UNL1       -0.0440
     28 C          12.1246   -1.7063    0.0000 C.3     1  UNL1       -0.0440
     29 C           4.2702   -2.2338    0.0000 C.ar    1  UNL1       -0.0196
     30 C           3.3984   -0.7371    0.0000 C.ar    1  UNL1       -0.0196
     31 C           3.4022   -1.7371    0.0000 C.ar    1  UNL1        0.1169
     32 H           9.5401    3.4830    0.0000 H       1  UNL1        0.0611
     33 H           8.1040    2.6390    0.0000 H       1  UNL1        0.0624
     34 H          11.4837    2.8942    0.0000 H       1  UNL1        0.0271
     35 H          11.2600    3.7420    0.0000 H       1  UNL1        0.0271
     36 H          10.4122    3.5183    0.0000 H       1  UNL1        0.0271
     37 H          11.4422    1.7183    0.0000 H       1  UNL1        0.0271
     38 H          12.0646    2.3359    0.0000 H       1  UNL1        0.0271
     39 H          11.4470    2.9583    0.0000 H       1  UNL1        0.0271
     40 H          11.0032   -0.8139    0.0000 H       1  UNL1        0.0358
     41 H          10.6046   -0.1237    0.0000 H       1  UNL1        0.0358
     42 H           9.8556   -2.0163    0.0000 H       1  UNL1        0.0575
     43 H           5.4588    1.1266    0.0000 H       1  UNL1        0.1037
     44 H           9.2166   -2.7432    0.0000 H       1  UNL1        0.0660
     45 H          10.0635   -2.5163    0.0000 H       1  UNL1        0.0660
     46 H           9.8366   -1.6693    0.0000 H       1  UNL1        0.0660
     47 H           5.6724   -2.0383    0.0000 H       1  UNL1        0.0625
     48 H           4.2601    0.3862    0.0000 H       1  UNL1        0.0625
     49 H          10.6386   -3.2063    0.0000 H       1  UNL1        0.0274
     50 H          11.2586   -3.8263    0.0000 H       1  UNL1        0.0274
     51 H          11.8786   -3.2063    0.0000 H       1  UNL1        0.0274
     52 H          12.4346   -2.2432    0.0000 H       1  UNL1        0.0274
     53 H          12.6616   -1.3963    0.0000 H       1  UNL1        0.0274
     54 H          11.8146   -1.1693    0.0000 H       1  UNL1        0.0274
     55 H           4.2726   -2.8537    0.0000 H       1  UNL1        0.0654
     56 H           2.8602   -0.4292    0.0000 H       1  UNL1        0.0654
     57 H           2.0000   -1.9325    0.0000 H       1  UNL1        0.2921
@<TRIPOS>BOND
     1     1     6    1
     2     1     7    1
     3     2    10   ar
     4     2    21   ar
     5     3    13    1
     6     3    24    1
     7     4    18    2
     8     5    31    1
     9     5    57    1
    10     6    12    1
    11     6    15    1
    12     6    16    1
    13     7     8   ar
    14     7     9   ar
    15     8    10   ar
    16     8    14    1
    17     9    13   ar
    18     9    17    1
    19    10    11   ar
    20    11    13   ar
    21    11    18   ar
    22    12    14    2
    23    12    32    1
    24    14    33    1
    25    15    34    1
    26    15    35    1
    27    15    36    1
    28    16    37    1
    29    16    38    1
    30    16    39    1
    31    17    20    1
    32    17    40    1
    33    17    41    1
    34    18    19   ar
    35    19    21   ar
    36    19    22    1
    37    20    23    2
    38    20    42    1
    39    21    43    1
    40    22    25   ar
    41    22    26   ar
    42    23    27    1
    43    23    28    1
    44    24    44    1
    45    24    45    1
    46    24    46    1
    47    25    29   ar
    48    25    47    1
    49    26    30   ar
    50    26    48    1
    51    27    49    1
    52    27    50    1
    53    27    51    1
    54    28    52    1
    55    28    53    1
    56    28    54    1
    57    29    31   ar
    58    29    55    1
    59    30    31   ar
    60    30    56    1
