@<TRIPOS>MOLECULE
IMPHY010644
 32 34 0 0 0
SMALL
GASTEIGER

@<TRIPOS>ATOM
      1 C           9.0774   -7.6362    0.0000 C.ar    1  UNL1        0.1418
      2 C          10.4866   -7.6358    0.0000 C.ar    1  UNL1        0.1542
      3 C           9.7833   -7.2289    0.0000 C.ar    1  UNL1        0.0745
      4 C          10.4866   -8.4510    0.0000 C.ar    1  UNL1        0.0700
      5 C           9.0774   -8.4546    0.0000 C.ar    1  UNL1        0.0372
      6 C           9.7851   -8.8578    0.0000 C.ar    1  UNL1        0.0090
      7 C          11.1926   -8.8586    0.0000 C.2     1  UNL1        0.1853
      8 C          11.8986   -8.4510    0.0000 C.3     1  UNL1        0.1454
      9 C          11.8986   -7.6358    0.0000 C.2     1  UNL1        0.3275
     10 O          11.1926   -7.2282    0.0000 O.3     1  UNL1       -0.4236
     11 C          12.4890   -7.8607    0.0000 C.3     1  UNL1        0.0041
     12 C          12.2828   -9.1871    0.0000 C.3     1  UNL1        0.0345
     13 C          13.2433   -8.2570    0.0000 C.3     1  UNL1       -0.0022
     14 C          13.1125   -9.0615    0.0000 C.3     1  UNL1        0.0047
     15 O          12.3061   -6.9301    0.0000 O.2     1  UNL1       -0.2493
     16 O          11.1926   -9.6738    0.0000 O.2     1  UNL1       -0.2907
     17 C          12.0719   -9.9743    0.0000 C.3     1  UNL1        0.0053
     18 C          12.9390  -10.0753    0.0000 C.2     1  UNL1       -0.0258
     19 C          14.0363   -9.9511    0.0000 C.2     1  UNL1       -0.0049
     20 C          13.5015   -6.9816    0.0000 C.3     1  UNL1        0.0578
     21 H          13.3039   -7.8607    0.0000 H       1  UNL1        0.0332
     22 C          13.2828   -6.0128    0.0000 C.3     1  UNL1        0.0076
     23 C          14.3165   -6.9816    0.0000 C.2     1  UNL1        0.1843
     24 C          15.3453   -7.5441    0.0000 C.3     1  UNL1        0.2300
     25 O          14.5274   -6.1944    0.0000 O.2     1  UNL1       -0.2931
     26 C          16.3765   -6.9503    0.0000 C.2     1  UNL1        0.0052
     27 C          17.0953   -7.3878    0.0000 C.2     1  UNL1       -0.0450
     28 C          17.8335   -6.9841    0.0000 C.3     1  UNL1        0.0261
     29 C          17.0953   -8.2292    0.0000 C.3     1  UNL1        0.0261
     30 O          15.3453   -8.7166    0.0000 O.3     1  UNL1       -0.2103
     31 O           8.3716   -7.2287    0.0000 O.3     1  UNL1       -0.4713
     32 C           7.6658   -7.6362    0.0000 C.3     1  UNL1        0.2525
@<TRIPOS>BOND
     1     1     5   ar
     2     1    31    1
     3     2     3   ar
     4     2    10    1
     5     3     1   ar
     6     4     2   ar
     7     4     7    1
     8     5     6   ar
     9     6     4   ar
    10     7    16    2
    11     8     9    1
    12     8     7    1
    13     8    11    1
    14     8    12    1
    15     9    10    1
    16     9    15    2
    17    11    13    1
    18    11    20    1
    19    11    21    1
    20    12    14    1
    21    12    17    1
    22    12    18    1
    23    13    14    1
    24    18    19    2
    25    20    22    1
    26    20    23    1
    27    23    24    1
    28    23    25    2
    29    24    26    1
    30    24    30    1
    31    26    27    2
    32    27    28    1
    33    27    29    1
    34    31    32    1
