@<TRIPOS>MOLECULE
IMPHY014417
 97 100 0 0 0
SMALL
GASTEIGER

@<TRIPOS>ATOM
      1 O           7.6967   -5.5296    0.0000 O.3     1  UNL1       -0.3813
      2 O           5.0109   -6.7512    0.0000 O.2     1  UNL1       -0.2957
      3 O           8.5462   -6.4904    0.0000 O.3     1  UNL1       -0.3845
      4 O           7.6967   -4.5296    0.0000 O.3     1  UNL1       -0.3811
      5 O           5.9646   -3.5296    0.0000 O.3     1  UNL1       -0.4278
      6 O           7.6967   -3.5296    0.0000 O.2     1  UNL1       -0.2504
      7 C           3.3665   -5.0296    0.0000 C.3     1  UNL1       -0.0192
      8 C           3.3665   -6.0296    0.0000 C.3     1  UNL1       -0.0311
      9 C           2.5000   -5.5296    0.0000 C.3     1  UNL1       -0.0277
     10 C           4.2326   -4.5296    0.0000 C.3     1  UNL1        0.0435
     11 C           4.2326   -6.5296    0.0000 C.3     1  UNL1       -0.0455
     12 C           5.9646   -6.5296    0.0000 C.3     1  UNL1        0.0847
     13 C           5.0986   -6.0296    0.0000 C.3     1  UNL1       -0.0249
     14 C           4.8219   -5.7692    0.0000 C.2     1  UNL1        0.1535
     15 C           6.8306   -6.0296    0.0000 C.3     1  UNL1        0.1441
     16 C           2.0000   -6.3956    0.0000 C.3     1  UNL1       -0.0593
     17 C           2.0000   -4.6635    0.0000 C.3     1  UNL1       -0.0593
     18 C           5.0986   -5.0296    0.0000 C.2     1  UNL1       -0.0325
     19 C           6.1738   -7.5014    0.0000 C.2     1  UNL1       -0.0662
     20 C           7.5676   -6.6966    0.0000 C.3     1  UNL1        0.1088
     21 C           6.8306   -5.0296    0.0000 C.3     1  UNL1        0.1449
     22 C           5.9646   -5.5296    0.0000 C.3     1  UNL1       -0.0611
     23 C           7.1625   -7.6044    0.0000 C.2     1  UNL1       -0.0446
     24 C           5.9646   -4.5296    0.0000 C.2     1  UNL1        0.1368
     25 C           7.6625   -8.4704    0.0000 C.3     1  UNL1       -0.0412
     26 C           6.8306   -3.0296    0.0000 C.2     1  UNL1        0.3121
     27 C           6.8306   -2.0296    0.0000 C.3     1  UNL1        0.0453
     28 C           7.6967   -1.5296    0.0000 C.3     1  UNL1       -0.0430
     29 C           7.6967   -0.5296    0.0000 C.3     1  UNL1       -0.0526
     30 C           8.5627   -0.0296    0.0000 C.3     1  UNL1       -0.0530
     31 C           8.5627    0.9704    0.0000 C.3     1  UNL1       -0.0531
     32 C           9.4287    1.4704    0.0000 C.3     1  UNL1       -0.0531
     33 C           9.4287    2.4704    0.0000 C.3     1  UNL1       -0.0531
     34 C          10.2947    2.9704    0.0000 C.3     1  UNL1       -0.0531
     35 C          10.2947    3.9704    0.0000 C.3     1  UNL1       -0.0531
     36 C          11.1608    4.4704    0.0000 C.3     1  UNL1       -0.0531
     37 C          11.1608    5.4704    0.0000 C.3     1  UNL1       -0.0531
     38 C          12.0268    5.9704    0.0000 C.3     1  UNL1       -0.0531
     39 C          12.0268    6.9704    0.0000 C.3     1  UNL1       -0.0533
     40 C          12.8928    7.4704    0.0000 C.3     1  UNL1       -0.0559
     41 C          12.8928    8.4704    0.0000 C.3     1  UNL1       -0.0653
     42 H           2.9415   -4.2934    0.0000 H       1  UNL1        0.0319
     43 H           3.3665   -6.8796    0.0000 H       1  UNL1        0.0309
     44 H           4.0719   -3.6949    0.0000 H       1  UNL1        0.0424
     45 H           3.8340   -7.0045    0.0000 H       1  UNL1        0.0271
     46 H           4.6311   -7.0045    0.0000 H       1  UNL1        0.0271
     47 H           4.7886   -5.4926    0.0000 H       1  UNL1        0.0312
     48 H           1.4631   -6.0856    0.0000 H       1  UNL1        0.0235
     49 H           1.6900   -6.9325    0.0000 H       1  UNL1        0.0235
     50 H           2.5369   -6.7056    0.0000 H       1  UNL1        0.0235
     51 H           2.5369   -4.3535    0.0000 H       1  UNL1        0.0235
     52 H           1.6900   -4.1266    0.0000 H       1  UNL1        0.0235
     53 H           1.4631   -4.9735    0.0000 H       1  UNL1        0.0235
     54 H           5.0986   -5.6495    0.0000 H       1  UNL1        0.0613
     55 H           5.7598   -7.9628    0.0000 H       1  UNL1        0.0583
     56 H           7.9572   -7.1790    0.0000 H       1  UNL1        0.0670
     57 H           6.8306   -4.4096    0.0000 H       1  UNL1        0.0705
     58 H           6.2746   -6.0665    0.0000 H       1  UNL1        0.0233
     59 H           6.5016   -5.2196    0.0000 H       1  UNL1        0.0233
     60 H           5.6546   -4.9926    0.0000 H       1  UNL1        0.0233
     61 H           8.2336   -5.8396    0.0000 H       1  UNL1        0.2105
     62 H           7.1256   -8.7804    0.0000 H       1  UNL1        0.0275
     63 H           7.9725   -9.0074    0.0000 H       1  UNL1        0.0275
     64 H           8.1995   -8.1605    0.0000 H       1  UNL1        0.0275
     65 H           8.9602   -6.9519    0.0000 H       1  UNL1        0.2103
     66 H           8.2336   -4.8396    0.0000 H       1  UNL1        0.2105
     67 H           6.6186   -1.4469    0.0000 H       1  UNL1        0.0378
     68 H           6.2201   -2.1372    0.0000 H       1  UNL1        0.0378
     69 H           7.9087   -2.1122    0.0000 H       1  UNL1        0.0270
     70 H           8.3072   -1.4219    0.0000 H       1  UNL1        0.0270
     71 H           7.4846    0.0531    0.0000 H       1  UNL1        0.0265
     72 H           7.0861   -0.6372    0.0000 H       1  UNL1        0.0265
     73 H           8.7747   -0.6122    0.0000 H       1  UNL1        0.0265
     74 H           9.1733    0.0781    0.0000 H       1  UNL1        0.0265
     75 H           8.3506    1.5531    0.0000 H       1  UNL1        0.0265
     76 H           7.9521    0.8628    0.0000 H       1  UNL1        0.0265
     77 H           9.6408    0.8878    0.0000 H       1  UNL1        0.0265
     78 H          10.0393    1.5781    0.0000 H       1  UNL1        0.0265
     79 H           9.2167    3.0531    0.0000 H       1  UNL1        0.0265
     80 H           8.8181    2.3628    0.0000 H       1  UNL1        0.0265
     81 H          10.5068    2.3878    0.0000 H       1  UNL1        0.0265
     82 H          10.9053    3.0781    0.0000 H       1  UNL1        0.0265
     83 H          10.0827    4.5531    0.0000 H       1  UNL1        0.0265
     84 H           9.6842    3.8628    0.0000 H       1  UNL1        0.0265
     85 H          11.3728    3.8878    0.0000 H       1  UNL1        0.0265
     86 H          11.7713    4.5781    0.0000 H       1  UNL1        0.0265
     87 H          10.9487    6.0531    0.0000 H       1  UNL1        0.0265
     88 H          10.5502    5.3628    0.0000 H       1  UNL1        0.0265
     89 H          12.2388    5.3878    0.0000 H       1  UNL1        0.0265
     90 H          12.6374    6.0781    0.0000 H       1  UNL1        0.0265
     91 H          11.8147    7.5531    0.0000 H       1  UNL1        0.0265
     92 H          11.4162    6.8628    0.0000 H       1  UNL1        0.0265
     93 H          13.1049    6.8878    0.0000 H       1  UNL1        0.0263
     94 H          13.5034    7.5781    0.0000 H       1  UNL1        0.0263
     95 H          13.5128    8.4704    0.0000 H       1  UNL1        0.0230
     96 H          12.8928    9.0904    0.0000 H       1  UNL1        0.0230
     97 H          12.2728    8.4704    0.0000 H       1  UNL1        0.0230
@<TRIPOS>BOND
     1    15     1    1
     2     1    61    1
     3     2    14    2
     4    20     3    1
     5     3    65    1
     6    21     4    1
     7     4    66    1
     8     5    24    1
     9     5    26    1
    10     6    26    2
    11     7     8    1
    12     7     9    1
    13     7    10    1
    14     7    42    1
    15     8     9    1
    16     8    11    1
    17     8    43    1
    18     9    16    1
    19     9    17    1
    20    10    14    1
    21    10    18    1
    22    10    44    1
    23    11    13    1
    24    11    45    1
    25    11    46    1
    26    12    13    1
    27    12    14    1
    28    12    15    1
    29    12    19    1
    30    13    22    1
    31    13    47    1
    32    15    20    1
    33    15    21    1
    34    16    48    1
    35    16    49    1
    36    16    50    1
    37    17    51    1
    38    17    52    1
    39    17    53    1
    40    18    24    2
    41    18    54    1
    42    19    23    2
    43    19    55    1
    44    20    23    1
    45    20    56    1
    46    21    24    1
    47    21    57    1
    48    22    58    1
    49    22    59    1
    50    22    60    1
    51    23    25    1
    52    25    62    1
    53    25    63    1
    54    25    64    1
    55    26    27    1
    56    27    28    1
    57    27    67    1
    58    27    68    1
    59    28    29    1
    60    28    69    1
    61    28    70    1
    62    29    30    1
    63    29    71    1
    64    29    72    1
    65    30    31    1
    66    30    73    1
    67    30    74    1
    68    31    32    1
    69    31    75    1
    70    31    76    1
    71    32    33    1
    72    32    77    1
    73    32    78    1
    74    33    34    1
    75    33    79    1
    76    33    80    1
    77    34    35    1
    78    34    81    1
    79    34    82    1
    80    35    36    1
    81    35    83    1
    82    35    84    1
    83    36    37    1
    84    36    85    1
    85    36    86    1
    86    37    38    1
    87    37    87    1
    88    37    88    1
    89    38    39    1
    90    38    89    1
    91    38    90    1
    92    39    40    1
    93    39    91    1
    94    39    92    1
    95    40    41    1
    96    40    93    1
    97    40    94    1
    98    41    95    1
    99    41    96    1
   100    41    97    1
