@<TRIPOS>MOLECULE
IMPHY011804
 24 23 0 0 0
SMALL
GASTEIGER

@<TRIPOS>ATOM
      1 O           3.7320    0.0000    0.0000 O.3     1  UNL1       -0.4645
      2 O           2.8660   -1.5000    0.0000 O.2     1  UNL1       -0.2512
      3 C           5.4641    0.0000    0.0000 C.3     1  UNL1       -0.0003
      4 C           4.5981   -0.5000    0.0000 C.3     1  UNL1        0.0958
      5 C           6.3301   -0.5000    0.0000 C.2     1  UNL1       -0.0847
      6 C           7.1962    1.0000    0.0000 C.3     1  UNL1       -0.0376
      7 C           7.1962   -0.0000    0.0000 C.2     1  UNL1       -0.0881
      8 C           8.0622    1.5000    0.0000 C.3     1  UNL1       -0.0618
      9 C           2.8660   -0.5000    0.0000 C.2     1  UNL1        0.3040
     10 C           2.0000    0.0000    0.0000 C.3     1  UNL1        0.0332
     11 H           5.8626    0.4749    0.0000 H       1  UNL1        0.0340
     12 H           5.0656    0.4749    0.0000 H       1  UNL1        0.0340
     13 H           4.1996   -0.9749    0.0000 H       1  UNL1        0.0700
     14 H           4.9966   -0.9749    0.0000 H       1  UNL1        0.0700
     15 H           6.3301   -1.1200    0.0000 H       1  UNL1        0.0570
     16 H           6.9841    1.5826    0.0000 H       1  UNL1        0.0305
     17 H           6.5856    0.8923    0.0000 H       1  UNL1        0.0305
     18 H           7.7331   -0.3100    0.0000 H       1  UNL1        0.0569
     19 H           8.3722    0.9631    0.0000 H       1  UNL1        0.0233
     20 H           8.5991    1.8100    0.0000 H       1  UNL1        0.0233
     21 H           7.7522    2.0369    0.0000 H       1  UNL1        0.0233
     22 H           2.3100    0.5369    0.0000 H       1  UNL1        0.0342
     23 H           1.4631    0.3100    0.0000 H       1  UNL1        0.0342
     24 H           1.6900   -0.5369    0.0000 H       1  UNL1        0.0342
@<TRIPOS>BOND
     1     1     4    1
     2     1     9    1
     3     2     9    2
     4     3     4    1
     5     3     5    1
     6     3    11    1
     7     3    12    1
     8     4    13    1
     9     4    14    1
    10     5     7    2
    11     5    15    1
    12     6     7    1
    13     6     8    1
    14     6    16    1
    15     6    17    1
    16     7    18    1
    17     8    19    1
    18     8    20    1
    19     8    21    1
    20     9    10    1
    21    10    22    1
    22    10    23    1
    23    10    24    1
