@<TRIPOS>MOLECULE
IMPHY014034
 14 13 0 0 0
SMALL
GASTEIGER

@<TRIPOS>ATOM
      1 O           3.7320   -1.2500    0.0000 O.3     1  UNL1       -0.3830
      2 O           4.5981    1.2500    0.0000 O.3     1  UNL1       -0.3830
      3 O           2.0000   -0.2500    0.0000 O.co2   1  UNL1       -0.5470
      4 O           6.3301    0.2500    0.0000 O.co2   1  UNL1       -0.5470
      5 O           2.8660    1.2500    0.0000 O.co2   1  UNL1       -0.5470
      6 O           5.4641   -1.2500    0.0000 O.co2   1  UNL1       -0.5470
      7 C           3.7320   -0.2500    0.0000 C.3     1  UNL1        0.1252
      8 C           4.5981    0.2500    0.0000 C.3     1  UNL1        0.1252
      9 C           2.8660    0.2500    0.0000 C.2     1  UNL1        0.0730
     10 C           5.4641   -0.2500    0.0000 C.2     1  UNL1        0.0730
     11 H           4.2690   -0.5600    0.0000 H       1  UNL1        0.0685
     12 H           5.1350    0.5600    0.0000 H       1  UNL1        0.0685
     13 H           3.1951   -1.5600    0.0000 H       1  UNL1        0.2104
     14 H           5.1350    1.5600    0.0000 H       1  UNL1        0.2104
@<TRIPOS>UNITY_ATOM_ATTR
3 1
charge -1
4 1
charge -1
@<TRIPOS>BOND
     1     1     7    1
     2     1    13    1
     3     2     8    1
     4     2    14    1
     5     3     9   ar
     6     4    10   ar
     7     5     9   ar
     8     6    10   ar
     9     7     8    1
    10     7     9    1
    11     7    11    1
    12     8    10    1
    13     8    12    1
