@<TRIPOS>MOLECULE
IMPHY010839
 71 76 0 0 0
SMALL
GASTEIGER

@<TRIPOS>ATOM
      1 O           4.1887   -1.5407    0.0000 O.3     1  UNL1       -0.3815
      2 O           3.7474   -0.7026    0.0000 O.3     1  UNL1       -0.3851
      3 O           5.2650   -1.8714    0.0000 O.3     1  UNL1       -0.3765
      4 O           7.0876    1.8904    0.0000 O.3     1  UNL1       -0.3912
      5 O           3.3708    1.4645    0.0000 O.3     1  UNL1       -0.3910
      6 O           2.9700    2.3483    0.0000 O.3     1  UNL1       -0.3793
      7 O           7.9536   -2.3448    0.0000 O.3     1  UNL1       -0.3824
      8 N           8.2830    0.0613    0.0000 N.3     1  UNL1       -0.2955
      9 C           6.3363    0.4566    0.0000 C.3     1  UNL1        0.0242
     10 C           6.3363   -0.4110    0.0000 C.3     1  UNL1        0.0068
     11 C           7.3382    0.3505    0.0000 C.3     1  UNL1        0.0529
     12 C           4.8122   -0.7589    0.0000 C.3     1  UNL1        0.1371
     13 C           5.6580    0.9975    0.0000 C.3     1  UNL1       -0.0228
     14 C           4.8122    0.8044    0.0000 C.3     1  UNL1        0.0206
     15 C           4.4357    0.0228    0.0000 C.3     1  UNL1        0.1063
     16 C           5.6580   -0.9519    0.0000 C.3     1  UNL1        0.0952
     17 C           7.0876   -0.8448    0.0000 C.3     1  UNL1        0.0128
     18 C           7.0876    0.8904    0.0000 C.3     1  UNL1        0.0630
     19 C           5.7358    1.8616    0.0000 C.3     1  UNL1       -0.0416
     20 C           4.9380    2.2026    0.0000 C.3     1  UNL1        0.0120
     21 C           4.3672    1.5492    0.0000 C.3     1  UNL1        0.0662
     22 C           3.7908    0.2927    0.0000 C.3     1  UNL1        0.0059
     23 C           8.2830   -0.6906    0.0000 C.3     1  UNL1        0.0074
     24 C           7.8390   -0.4110    0.0000 C.3     1  UNL1       -0.0414
     25 C           3.7908    1.7772    0.0000 C.3     1  UNL1        0.0662
     26 C           7.8390    0.4566    0.0000 C.3     1  UNL1       -0.0256
     27 C           7.0876   -1.8448    0.0000 C.3     1  UNL1        0.0544
     28 C           9.0869    0.6560    0.0000 C.3     1  UNL1       -0.0035
     29 C           5.8648   -2.6716    0.0000 C.3     1  UNL1        0.0369
     30 C          10.0039    0.2571    0.0000 C.3     1  UNL1       -0.0523
     31 C           3.0541    3.3448    0.0000 C.3     1  UNL1        0.0368
     32 C           7.9536   -3.3448    0.0000 C.3     1  UNL1        0.0365
     33 H           6.3998   -1.2586    0.0000 H       1  UNL1        0.0340
     34 H           7.7828    1.0750    0.0000 H       1  UNL1        0.0499
     35 H           6.4396    1.3316    0.0000 H       1  UNL1        0.0312
     36 H           3.9630    0.7663    0.0000 H       1  UNL1        0.0357
     37 H           5.8584   -1.5386    0.0000 H       1  UNL1        0.0629
     38 H           6.5507    1.2004    0.0000 H       1  UNL1        0.0599
     39 H           5.9185    2.4540    0.0000 H       1  UNL1        0.0272
     40 H           6.3441    1.7418    0.0000 H       1  UNL1        0.0272
     41 H           4.9588    3.0523    0.0000 H       1  UNL1        0.0351
     42 H           4.0871    2.1023    0.0000 H       1  UNL1        0.0600
     43 H           3.6289   -0.3058    0.0000 H       1  UNL1        0.0319
     44 H           3.1762    0.3744    0.0000 H       1  UNL1        0.0319
     45 H           8.9024   -0.6640    0.0000 H       1  UNL1        0.0433
     46 H           8.3359   -1.3083    0.0000 H       1  UNL1        0.0433
     47 H           8.4495   -0.3033    0.0000 H       1  UNL1        0.0273
     48 H           8.0510   -0.9936    0.0000 H       1  UNL1        0.0273
     49 H           3.8690    2.3923    0.0000 H       1  UNL1        0.0600
     50 H           8.0510    1.0392    0.0000 H       1  UNL1        0.0290
     51 H           8.4495    0.3489    0.0000 H       1  UNL1        0.0290
     52 H           6.8756   -2.4274    0.0000 H       1  UNL1        0.0566
     53 H           6.4770   -1.7371    0.0000 H       1  UNL1        0.0566
     54 H           4.4152   -2.1178    0.0000 H       1  UNL1        0.2105
     55 H           3.1445   -0.5579    0.0000 H       1  UNL1        0.2103
     56 H           8.6373    1.0829    0.0000 H       1  UNL1        0.0424
     57 H           9.4292    1.1730    0.0000 H       1  UNL1        0.0424
     58 H           7.6246    2.2004    0.0000 H       1  UNL1        0.2098
     59 H           3.1073    0.9033    0.0000 H       1  UNL1        0.2098
     60 H           6.3609   -2.2997    0.0000 H       1  UNL1        0.0524
     61 H           6.2367   -3.1677    0.0000 H       1  UNL1        0.0524
     62 H           5.3687   -3.0435    0.0000 H       1  UNL1        0.0524
     63 H          10.2512    0.8256    0.0000 H       1  UNL1        0.0242
     64 H          10.5724    0.0098    0.0000 H       1  UNL1        0.0242
     65 H           9.7566   -0.3114    0.0000 H       1  UNL1        0.0242
     66 H           2.4363    3.3970    0.0000 H       1  UNL1        0.0524
     67 H           3.1063    3.9626    0.0000 H       1  UNL1        0.0524
     68 H           3.6719    3.2926    0.0000 H       1  UNL1        0.0524
     69 H           8.5736   -3.3448    0.0000 H       1  UNL1        0.0523
     70 H           7.9536   -3.9648    0.0000 H       1  UNL1        0.0523
     71 H           7.3336   -3.3448    0.0000 H       1  UNL1        0.0523
@<TRIPOS>BOND
     1    12     1    1
     2     1    54    1
     3    15     2    1
     4     2    55    1
     5    16     3    1
     6     3    29    1
     7    18     4    1
     8     4    58    1
     9    21     5    1
    10     5    59    1
    11    25     6    1
    12     6    31    1
    13     7    27    1
    14     7    32    1
    15     8    11    1
    16     8    23    1
    17     8    28    1
    18     9    10    1
    19     9    11    1
    20     9    13    1
    21     9    18    1
    22    10    16    1
    23    10    17    1
    24    10    33    1
    25    11    12    1
    26    11    34    1
    27    12    15    1
    28    12    16    1
    29    13    14    1
    30    13    19    1
    31    13    35    1
    32    14    15    1
    33    14    21    1
    34    14    36    1
    35    15    22    1
    36    16    37    1
    37    17    23    1
    38    17    24    1
    39    17    27    1
    40    18    26    1
    41    18    38    1
    42    19    20    1
    43    19    39    1
    44    19    40    1
    45    20    21    1
    46    20    25    1
    47    20    41    1
    48    21    42    1
    49    22    25    1
    50    22    43    1
    51    22    44    1
    52    23    45    1
    53    23    46    1
    54    24    26    1
    55    24    47    1
    56    24    48    1
    57    25    49    1
    58    26    50    1
    59    26    51    1
    60    27    52    1
    61    27    53    1
    62    28    30    1
    63    28    56    1
    64    28    57    1
    65    29    60    1
    66    29    61    1
    67    29    62    1
    68    30    63    1
    69    30    64    1
    70    30    65    1
    71    31    66    1
    72    31    67    1
    73    31    68    1
    74    32    69    1
    75    32    70    1
    76    32    71    1
