@<TRIPOS>MOLECULE
IMPHY005827
 22 22 0 0 0
SMALL
GASTEIGER

@<TRIPOS>ATOM
      1 N           5.1350   -0.6900    0.0000 N.2     1  UNL1       -0.2882
      2 C           5.1350    1.3100    0.0000 C.3     1  UNL1       -0.0460
      3 C           6.0010    0.8100    0.0000 C.3     1  UNL1       -0.0331
      4 C           4.2690    0.8100    0.0000 C.3     1  UNL1       -0.0108
      5 C           6.0010   -0.1900    0.0000 C.3     1  UNL1        0.0400
      6 C           4.2690   -0.1900    0.0000 C.2     1  UNL1        0.0356
      7 C           3.4030   -0.6900    0.0000 C.2     1  UNL1       -0.0450
      8 C           2.5369   -0.1900    0.0000 C.2     1  UNL1       -0.0854
      9 C           2.5369    0.8100    0.0000 C.3     1  UNL1       -0.0465
     10 H           5.5335    1.7850    0.0000 H       1  UNL1        0.0269
     11 H           4.7365    1.7850    0.0000 H       1  UNL1        0.0269
     12 H           6.6116    0.7023    0.0000 H       1  UNL1        0.0283
     13 H           6.2131    1.3926    0.0000 H       1  UNL1        0.0283
     14 H           4.0569    1.3926    0.0000 H       1  UNL1        0.0328
     15 H           3.6584    0.7023    0.0000 H       1  UNL1        0.0328
     16 H           6.2131   -0.7726    0.0000 H       1  UNL1        0.0508
     17 H           6.6116   -0.0823    0.0000 H       1  UNL1        0.0508
     18 H           3.4030   -1.3100    0.0000 H       1  UNL1        0.0632
     19 H           2.0000   -0.5000    0.0000 H       1  UNL1        0.0570
     20 H           3.1569    0.8100    0.0000 H       1  UNL1        0.0272
     21 H           2.5369    1.4300    0.0000 H       1  UNL1        0.0272
     22 H           1.9169    0.8100    0.0000 H       1  UNL1        0.0272
@<TRIPOS>BOND
     1     1     5    1
     2     1     6    2
     3     2     3    1
     4     2     4    1
     5     2    10    1
     6     2    11    1
     7     3     5    1
     8     3    12    1
     9     3    13    1
    10     4     6    1
    11     4    14    1
    12     4    15    1
    13     5    16    1
    14     5    17    1
    15     6     7    1
    16     7     8    2
    17     7    18    1
    18     8     9    1
    19     8    19    1
    20     9    20    1
    21     9    21    1
    22     9    22    1
