@<TRIPOS>MOLECULE
IMPHY006481
 32 34 0 0 0
SMALL
GASTEIGER

@<TRIPOS>ATOM
      1 O           2.0000    0.9240    0.0000 O.2     1  UNL1       -0.2921
      2 C           4.0984   -0.7073    0.0000 C.3     1  UNL1       -0.0163
      3 C           3.1974   -0.2734    0.0000 C.3     1  UNL1        0.0277
      4 C           3.9624   -1.6920    0.0000 C.3     1  UNL1       -0.0375
      5 C           3.9916    0.4695    0.0000 C.3     1  UNL1       -0.0395
      6 C           4.9994   -0.2734    0.0000 C.3     1  UNL1       -0.0459
      7 C           4.5984    1.4834    0.0000 C.3     1  UNL1       -0.0126
      8 C           2.5124   -0.9937    0.0000 C.3     1  UNL1       -0.0424
      9 C           5.2219    0.7015    0.0000 C.3     1  UNL1       -0.0456
     10 C           2.9842   -1.8687    0.0000 C.3     1  UNL1       -0.0493
     11 C           2.9749    0.7015    0.0000 C.2     1  UNL1        0.1625
     12 C           3.5984    1.4834    0.0000 C.2     1  UNL1       -0.0086
     13 C           4.6840   -2.3843    0.0000 C.3     1  UNL1       -0.0619
     14 C           3.1645    2.3843    0.0000 C.2     1  UNL1       -0.0919
     15 H           2.3778   -0.0483    0.0000 H       1  UNL1        0.0386
     16 H           3.7833   -2.2856    0.0000 H       1  UNL1        0.0304
     17 H           3.5838    0.9365    0.0000 H       1  UNL1        0.0277
     18 H           3.4215    0.2257    0.0000 H       1  UNL1        0.0277
     19 H           5.1374   -0.8779    0.0000 H       1  UNL1        0.0271
     20 H           5.6194   -0.2734    0.0000 H       1  UNL1        0.0271
     21 H           4.7876    2.3120    0.0000 H       1  UNL1        0.0350
     22 H           2.1105   -0.5216    0.0000 H       1  UNL1        0.0272
     23 H           2.0006   -1.3437    0.0000 H       1  UNL1        0.0272
     24 H           5.7805    0.4325    0.0000 H       1  UNL1        0.0271
     25 H           5.6085    1.1863    0.0000 H       1  UNL1        0.0271
     26 H           2.4105   -2.1040    0.0000 H       1  UNL1        0.0268
     27 H           3.1579   -2.4638    0.0000 H       1  UNL1        0.0268
     28 H           4.2548   -2.8317    0.0000 H       1  UNL1        0.0233
     29 H           5.1314   -2.8136    0.0000 H       1  UNL1        0.0233
     30 H           5.1132   -1.9369    0.0000 H       1  UNL1        0.0233
     31 H           3.5138    2.8966    0.0000 H       1  UNL1        0.0539
     32 H           2.5463    2.4307    0.0000 H       1  UNL1        0.0539
@<TRIPOS>BOND
     1     1    11    2
     2     2     3    1
     3     2     4    1
     4     2     5    1
     5     2     6    1
     6     3     8    1
     7     3    11    1
     8     3    15    1
     9     4    10    1
    10     4    13    1
    11     4    16    1
    12     5     7    1
    13     5    17    1
    14     5    18    1
    15     6     9    1
    16     6    19    1
    17     6    20    1
    18     7     9    1
    19     7    12    1
    20     7    21    1
    21     8    10    1
    22     8    22    1
    23     8    23    1
    24     9    24    1
    25     9    25    1
    26    10    26    1
    27    10    27    1
    28    11    12    1
    29    12    14    2
    30    13    28    1
    31    13    29    1
    32    13    30    1
    33    14    31    1
    34    14    32    1
