@<TRIPOS>MOLECULE
IMPHY009511
 46 45 0 0 0
SMALL
GASTEIGER

@<TRIPOS>ATOM
      1 O           9.7942    2.0950    0.0000 O.3     1  UNL1       -0.3892
      2 O           8.9282   -0.4050    0.0000 O.3     1  UNL1       -0.3883
      3 O           3.7320   -2.4050    0.0000 O.2     1  UNL1       -0.2830
      4 C          11.5263    1.0950    0.0000 C.3     1  UNL1       -0.0506
      5 C          10.6603    0.5950    0.0000 C.3     1  UNL1       -0.0244
      6 C          12.3923    0.5950    0.0000 C.3     1  UNL1       -0.0530
      7 C           9.7942    1.0950    0.0000 C.3     1  UNL1        0.0819
      8 C          13.2583    1.0950    0.0000 C.3     1  UNL1       -0.0531
      9 C           8.9282    0.5950    0.0000 C.3     1  UNL1        0.0918
     10 C          14.1244    0.5950    0.0000 C.3     1  UNL1       -0.0533
     11 C          14.9904    1.0950    0.0000 C.3     1  UNL1       -0.0559
     12 C           8.0622    1.0950    0.0000 C.3     1  UNL1        0.0385
     13 C          15.8564    0.5950    0.0000 C.3     1  UNL1       -0.0653
     14 C           7.1962    0.5950    0.0000 C.1     1  UNL1       -0.0858
     15 C           6.3301    0.0950    0.0000 C.1     1  UNL1       -0.0143
     16 C           5.4641   -0.4050    0.0000 C.1     1  UNL1       -0.0068
     17 C           2.8660   -0.9050    0.0000 C.3     1  UNL1        0.0154
     18 C           4.5981   -0.9050    0.0000 C.1     1  UNL1       -0.0147
     19 C           3.7320   -1.4050    0.0000 C.2     1  UNL1        0.2063
     20 C           2.0000   -1.4050    0.0000 C.3     1  UNL1       -0.0576
     21 H          11.9248    1.5700    0.0000 H       1  UNL1        0.0266
     22 H          11.1278    1.5700    0.0000 H       1  UNL1        0.0266
     23 H          10.2617    0.1201    0.0000 H       1  UNL1        0.0291
     24 H          11.0588    0.1201    0.0000 H       1  UNL1        0.0291
     25 H          11.9938    0.1201    0.0000 H       1  UNL1        0.0265
     26 H          12.7908    0.1201    0.0000 H       1  UNL1        0.0265
     27 H           9.2573    1.4050    0.0000 H       1  UNL1        0.0619
     28 H          13.6569    1.5700    0.0000 H       1  UNL1        0.0265
     29 H          12.8598    1.5700    0.0000 H       1  UNL1        0.0265
     30 H           9.4651    0.2850    0.0000 H       1  UNL1        0.0628
     31 H          13.7258    0.1201    0.0000 H       1  UNL1        0.0265
     32 H          14.5229    0.1201    0.0000 H       1  UNL1        0.0265
     33 H          15.3889    1.5700    0.0000 H       1  UNL1        0.0263
     34 H          14.5919    1.5700    0.0000 H       1  UNL1        0.0263
     35 H           8.4607    1.5700    0.0000 H       1  UNL1        0.0424
     36 H           7.6636    1.5700    0.0000 H       1  UNL1        0.0424
     37 H          10.3312    2.4050    0.0000 H       1  UNL1        0.2099
     38 H          15.5464    0.0581    0.0000 H       1  UNL1        0.0230
     39 H          16.3933    0.2850    0.0000 H       1  UNL1        0.0230
     40 H          16.1664    1.1319    0.0000 H       1  UNL1        0.0230
     41 H           8.3913   -0.7150    0.0000 H       1  UNL1        0.2099
     42 H           3.2646   -0.4301    0.0000 H       1  UNL1        0.0349
     43 H           2.4675   -0.4301    0.0000 H       1  UNL1        0.0349
     44 H           1.6900   -0.8681    0.0000 H       1  UNL1        0.0234
     45 H           1.4631   -1.7150    0.0000 H       1  UNL1        0.0234
     46 H           2.3100   -1.9419    0.0000 H       1  UNL1        0.0234
@<TRIPOS>BOND
     1     7     1    1
     2     1    37    1
     3     9     2    1
     4     2    41    1
     5     3    19    2
     6     4     5    1
     7     4     6    1
     8     4    21    1
     9     4    22    1
    10     5     7    1
    11     5    23    1
    12     5    24    1
    13     6     8    1
    14     6    25    1
    15     6    26    1
    16     7     9    1
    17     7    27    1
    18     8    10    1
    19     8    28    1
    20     8    29    1
    21     9    12    1
    22     9    30    1
    23    10    11    1
    24    10    31    1
    25    10    32    1
    26    11    13    1
    27    11    33    1
    28    11    34    1
    29    12    14    1
    30    12    35    1
    31    12    36    1
    32    13    38    1
    33    13    39    1
    34    13    40    1
    35    14    15    3
    36    15    16    1
    37    16    18    3
    38    17    19    1
    39    17    20    1
    40    17    42    1
    41    17    43    1
    42    18    19    1
    43    20    44    1
    44    20    45    1
    45    20    46    1
