@<TRIPOS>MOLECULE
IMPHY006824
 65 68 0 0 0
SMALL
GASTEIGER

@<TRIPOS>ATOM
      1 O           6.0010    1.1550    0.0000 O.3     1  UNL1       -0.3222
      2 O           6.8671   -0.3450    0.0000 O.3     1  UNL1       -0.3194
      3 O           8.9900    3.4102    0.0000 O.3     1  UNL1       -0.3875
      4 O           5.1350    2.6550    0.0000 O.3     1  UNL1       -0.3544
      5 O           5.1350   -0.3450    0.0000 O.3     1  UNL1       -0.3404
      6 O           9.9685   -0.3065    0.0000 O.3     1  UNL1       -0.4567
      7 O           6.8671   -2.3450    0.0000 O.3     1  UNL1       -0.3841
      8 O           5.1350   -3.3450    0.0000 O.3     1  UNL1       -0.3864
      9 O           3.4030   -2.3450    0.0000 O.3     1  UNL1       -0.3865
     10 O           2.5369   -0.8450    0.0000 O.3     1  UNL1       -0.3924
     11 O           9.6113   -2.0013    0.0000 O.2     1  UNL1       -0.2450
     12 O          14.1932   -2.0819    0.0000 O.3     1  UNL1       -0.5068
     13 C           7.7331    2.1550    0.0000 C.3     1  UNL1        0.0044
     14 C           7.7331    1.1550    0.0000 C.3     1  UNL1        0.0402
     15 C           8.6793    2.4597    0.0000 C.3     1  UNL1        0.0774
     16 C           6.8671    0.6550    0.0000 C.3     1  UNL1        0.1720
     17 C           6.8671    2.6550    0.0000 C.3     1  UNL1        0.0047
     18 C           8.6793    0.8503    0.0000 C.2     1  UNL1       -0.0259
     19 C           6.0010    2.1550    0.0000 C.3     1  UNL1        0.1621
     20 C           9.2629    1.6550    0.0000 C.2     1  UNL1       -0.0528
     21 C           6.0010   -0.8450    0.0000 C.3     1  UNL1        0.1908
     22 C           8.9900   -0.1003    0.0000 C.3     1  UNL1        0.1144
     23 C           6.0010   -1.8450    0.0000 C.3     1  UNL1        0.1342
     24 C           5.1350   -2.3450    0.0000 C.3     1  UNL1        0.1141
     25 C           4.2690   -1.8450    0.0000 C.3     1  UNL1        0.1119
     26 C           4.2690   -0.8450    0.0000 C.3     1  UNL1        0.1130
     27 C           3.4030   -0.3450    0.0000 C.3     1  UNL1        0.0730
     28 C           5.1350    3.6550    0.0000 C.3     1  UNL1        0.0394
     29 C          10.2791   -1.2570    0.0000 C.2     1  UNL1        0.3395
     30 C          11.2576   -1.4632    0.0000 C.ar    1  UNL1        0.0592
     31 C          11.5683   -2.4137    0.0000 C.ar    1  UNL1       -0.0443
     32 C          11.9255   -0.7189    0.0000 C.ar    1  UNL1       -0.0443
     33 C          12.5468   -2.6199    0.0000 C.ar    1  UNL1       -0.0194
     34 C          12.9040   -0.9251    0.0000 C.ar    1  UNL1       -0.0194
     35 C          13.2147   -1.8756    0.0000 C.ar    1  UNL1        0.1169
     36 H           7.8230    3.0002    0.0000 H       1  UNL1        0.0338
     37 H           7.8230    0.3098    0.0000 H       1  UNL1        0.0400
     38 H           8.2418    2.8991    0.0000 H       1  UNL1        0.0641
     39 H           7.4040    0.3450    0.0000 H       1  UNL1        0.0918
     40 H           7.2656    3.1300    0.0000 H       1  UNL1        0.0318
     41 H           6.4685    3.1300    0.0000 H       1  UNL1        0.0318
     42 H           6.0010    2.7750    0.0000 H       1  UNL1        0.0910
     43 H           9.8829    1.6550    0.0000 H       1  UNL1        0.0598
     44 H           6.0010   -0.2250    0.0000 H       1  UNL1        0.0938
     45 H           8.3762   -0.1876    0.0000 H       1  UNL1        0.0746
     46 H           8.9694   -0.7199    0.0000 H       1  UNL1        0.0746
     47 H           6.0010   -2.4650    0.0000 H       1  UNL1        0.0671
     48 H           4.5981   -2.6550    0.0000 H       1  UNL1        0.0648
     49 H           3.7320   -1.5350    0.0000 H       1  UNL1        0.0647
     50 H           4.2690   -0.2250    0.0000 H       1  UNL1        0.0647
     51 H           9.5966    3.5381    0.0000 H       1  UNL1        0.2102
     52 H           3.8015    0.1299    0.0000 H       1  UNL1        0.0584
     53 H           3.0044    0.1299    0.0000 H       1  UNL1        0.0584
     54 H           6.8671   -2.9650    0.0000 H       1  UNL1        0.2101
     55 H           5.7550    3.6550    0.0000 H       1  UNL1        0.0525
     56 H           5.1350    4.2750    0.0000 H       1  UNL1        0.0525
     57 H           4.5150    3.6550    0.0000 H       1  UNL1        0.0525
     58 H           4.5981   -3.6550    0.0000 H       1  UNL1        0.2100
     59 H           3.4030   -2.9650    0.0000 H       1  UNL1        0.2100
     60 H           2.0000   -0.5350    0.0000 H       1  UNL1        0.2095
     61 H          11.1542   -2.8752    0.0000 H       1  UNL1        0.0627
     62 H          11.7329   -0.1296    0.0000 H       1  UNL1        0.0627
     63 H          12.7394   -3.2093    0.0000 H       1  UNL1        0.0654
     64 H          13.3181   -0.4637    0.0000 H       1  UNL1        0.0654
     65 H          14.3858   -2.6712    0.0000 H       1  UNL1        0.2921
@<TRIPOS>BOND
     1     1    16    1
     2     1    19    1
     3    16     2    1
     4    21     2    1
     5    15     3    1
     6     3    51    1
     7    19     4    1
     8     4    28    1
     9     5    21    1
    10     5    26    1
    11     6    22    1
    12     6    29    1
    13    23     7    1
    14     7    54    1
    15    24     8    1
    16     8    58    1
    17    25     9    1
    18     9    59    1
    19    10    27    1
    20    10    60    1
    21    11    29    2
    22    12    35    1
    23    12    65    1
    24    13    14    1
    25    13    15    1
    26    13    17    1
    27    13    36    1
    28    14    16    1
    29    14    18    1
    30    14    37    1
    31    15    20    1
    32    15    38    1
    33    16    39    1
    34    17    19    1
    35    17    40    1
    36    17    41    1
    37    18    20    2
    38    18    22    1
    39    19    42    1
    40    20    43    1
    41    21    23    1
    42    21    44    1
    43    22    45    1
    44    22    46    1
    45    23    24    1
    46    23    47    1
    47    24    25    1
    48    24    48    1
    49    25    26    1
    50    25    49    1
    51    26    27    1
    52    26    50    1
    53    27    52    1
    54    27    53    1
    55    28    55    1
    56    28    56    1
    57    28    57    1
    58    29    30    1
    59    30    31   ar
    60    30    32   ar
    61    31    33   ar
    62    31    61    1
    63    32    34   ar
    64    32    62    1
    65    33    35   ar
    66    33    63    1
    67    34    35   ar
    68    34    64    1
