@<TRIPOS>MOLECULE
IMPHY013336
 23 22 0 0 0
SMALL
GASTEIGER

@<TRIPOS>ATOM
      1 O           2.0000   -1.9400    0.0000 O.3     1  UNL1       -0.3921
      2 O           5.4641    1.0600    0.0000 O.3     1  UNL1       -0.4795
      3 OXT         4.5981    2.5600    0.0000 O.2     1  UNL1       -0.2493
      4 N           2.8660    1.5600    0.0000 N.3     1  UNL1       -0.3184
      5 C           2.8660   -0.4400    0.0000 C.3     1  UNL1       -0.0252
      6 C           3.7320    0.0600    0.0000 C.3     1  UNL1       -0.0250
      7 C           2.8660   -1.4400    0.0000 C.3     1  UNL1        0.0525
      8 CA          3.7320    1.0600    0.0000 C.3     1  UNL1        0.1033
      9 C           3.7320   -1.9400    0.0000 C.3     1  UNL1       -0.0389
     10 C           4.5981    1.5600    0.0000 C.2     1  UNL1        0.3217
     11 H           3.9441   -0.5226    0.0000 H       1  UNL1        0.0286
     12 H           4.3426    0.1677    0.0000 H       1  UNL1        0.0286
     13 H           2.6540    0.1426    0.0000 H       1  UNL1        0.0291
     14 H           2.2554   -0.5477    0.0000 H       1  UNL1        0.0291
     15 H           2.8660   -2.0600    0.0000 H       1  UNL1        0.0590
     16 HA          3.7320    1.6800    0.0000 H       1  UNL1        0.0574
     17 H           3.4220   -2.4769    0.0000 H       1  UNL1        0.0254
     18 H           4.2690   -2.2500    0.0000 H       1  UNL1        0.0254
     19 H           4.0420   -1.4031    0.0000 H       1  UNL1        0.0254
     20 H1          2.3291    1.2500    0.0000 H       1  UNL1        0.1190
     21 H2          2.8660    2.1800    0.0000 H       1  UNL1        0.1190
     22 H           2.0000   -2.5600    0.0000 H       1  UNL1        0.2098
     23 H           6.0010    1.3700    0.0000 H       1  UNL1        0.2951
@<TRIPOS>BOND
     1     1     7    1
     2     1    22    1
     3     2    10    1
     4     2    23    1
     5     3    10    2
     6     4     8    1
     7     4    20    1
     8     4    21    1
     9     5     6    1
    10     5     7    1
    11     5    13    1
    12     5    14    1
    13     6     8    1
    14     6    11    1
    15     6    12    1
    16     7     9    1
    17     7    15    1
    18     8    10    1
    19     8    16    1
    20     9    17    1
    21     9    18    1
    22     9    19    1
