@<TRIPOS>MOLECULE
IMPHY013578
 40 42 0 0 0
SMALL
GASTEIGER

@<TRIPOS>ATOM
      1 O           2.9755   -1.9420    0.0000 O.3     1  UNL1       -0.3613
      2 C           3.8019   -1.3782    0.0000 C.3     1  UNL1        0.1019
      3 C           2.9010   -0.9443    0.0000 C.3     1  UNL1        0.0967
      4 C           4.7029   -0.9443    0.0000 C.3     1  UNL1       -0.0060
      5 C           3.9379   -2.3630    0.0000 C.3     1  UNL1       -0.0205
      6 C           5.3880   -1.6646    0.0000 C.3     1  UNL1       -0.0382
      7 C           2.6785    0.0306    0.0000 C.3     1  UNL1       -0.0207
      8 C           4.9162   -2.5396    0.0000 C.3     1  UNL1       -0.0474
      9 C           4.9254    0.0306    0.0000 C.3     1  UNL1       -0.0407
     10 C           4.3019    0.8124    0.0000 C.3     1  UNL1       -0.0200
     11 C           2.0000   -0.5105    0.0000 C.3     1  UNL1       -0.0331
     12 C           3.3019    0.8124    0.0000 C.3     1  UNL1       -0.0438
     13 C           6.3792   -1.5321    0.0000 C.3     1  UNL1       -0.0621
     14 C           4.7358    1.7134    0.0000 C.2     1  UNL1       -0.0766
     15 C           4.1725    2.5396    0.0000 C.3     1  UNL1       -0.0438
     16 C           5.7330    1.7881    0.0000 C.2     1  UNL1       -0.0994
     17 H           5.3008   -0.7802    0.0000 H       1  UNL1        0.0332
     18 H           3.3182   -2.3828    0.0000 H       1  UNL1        0.0294
     19 H           3.8925   -2.9813    0.0000 H       1  UNL1        0.0294
     20 H           5.7404   -2.1747    0.0000 H       1  UNL1        0.0302
     21 H           2.2919    0.5153    0.0000 H       1  UNL1        0.0294
     22 H           2.1198   -0.2384    0.0000 H       1  UNL1        0.0294
     23 H           4.7425   -3.1348    0.0000 H       1  UNL1        0.0269
     24 H           5.4898   -2.7749    0.0000 H       1  UNL1        0.0269
     25 H           5.4840   -0.2384    0.0000 H       1  UNL1        0.0275
     26 H           5.3120    0.5153    0.0000 H       1  UNL1        0.0275
     27 H           4.9180    0.8818    0.0000 H       1  UNL1        0.0346
     28 H           2.2690    0.0481    0.0000 H       1  UNL1        0.0258
     29 H           1.4414   -0.2415    0.0000 H       1  UNL1        0.0258
     30 H           1.7310   -1.0691    0.0000 H       1  UNL1        0.0258
     31 H           3.4399    1.4169    0.0000 H       1  UNL1        0.0272
     32 H           2.7433    1.0814    0.0000 H       1  UNL1        0.0272
     33 H           6.4614   -2.1467    0.0000 H       1  UNL1        0.0233
     34 H           6.9937   -1.4500    0.0000 H       1  UNL1        0.0233
     35 H           6.2970   -0.9176    0.0000 H       1  UNL1        0.0233
     36 H           4.6848    2.8889    0.0000 H       1  UNL1        0.0274
     37 H           3.8232    3.0519    0.0000 H       1  UNL1        0.0274
     38 H           3.6602    2.1904    0.0000 H       1  UNL1        0.0274
     39 H           6.0823    1.2758    0.0000 H       1  UNL1        0.0534
     40 H           6.0020    2.3467    0.0000 H       1  UNL1        0.0534
@<TRIPOS>BOND
     1     1     2    1
     2     1     3    1
     3     2     3    1
     4     2     4    1
     5     2     5    1
     6     3     7    1
     7     3    11    1
     8     4     6    1
     9     4     9    1
    10     4    17    1
    11     5     8    1
    12     5    18    1
    13     5    19    1
    14     6     8    1
    15     6    13    1
    16     6    20    1
    17     7    12    1
    18     7    21    1
    19     7    22    1
    20     8    23    1
    21     8    24    1
    22     9    10    1
    23     9    25    1
    24     9    26    1
    25    10    12    1
    26    10    14    1
    27    10    27    1
    28    11    28    1
    29    11    29    1
    30    11    30    1
    31    12    31    1
    32    12    32    1
    33    13    33    1
    34    13    34    1
    35    13    35    1
    36    14    15    1
    37    14    16    2
    38    15    36    1
    39    15    37    1
    40    15    38    1
    41    16    39    1
    42    16    40    1
