@<TRIPOS>MOLECULE
IMPHY006301
 86 92 0 0 0
SMALL
GASTEIGER

@<TRIPOS>ATOM
      1 O           5.5268    1.4109    0.0000 O.3     1  UNL1       -0.4517
      2 O           3.5436    4.3601    0.0000 O.3     1  UNL1       -0.4913
      3 O           3.5436    2.3669    0.0000 O.3     1  UNL1       -0.5009
      4 O           7.2341   -2.2206    0.0000 O.3     1  UNL1       -0.4487
      5 O           8.7228   -2.0356    0.0000 O.3     1  UNL1       -0.5033
      6 O           7.4368   -4.3747    0.0000 O.3     1  UNL1       -0.4914
      7 N           7.8502    2.8669    0.0000 N.4     1  UNL1        0.2450
      8 N           2.9386   -3.6377    0.0000 N.3     1  UNL1       -0.2978
      9 C           6.9900    2.3703    0.0000 C.3     1  UNL1        0.0143
     10 C           7.8502    3.8601    0.0000 C.3     1  UNL1       -0.0259
     11 C           6.1299    2.8669    0.0000 C.ar    1  UNL1        0.0499
     12 C           6.9900    4.3567    0.0000 C.3     1  UNL1        0.0135
     13 C           6.7330    1.4109    0.0000 C.3     1  UNL1        0.0202
     14 C           6.1299    3.8601    0.0000 C.ar    1  UNL1       -0.0266
     15 C           8.8502    2.8669    0.0000 C.3     1  UNL1       -0.0409
     16 C           8.3502    2.0008    0.0000 C.3     1  UNL1       -0.0409
     17 C           5.2697    2.3703    0.0000 C.ar    1  UNL1        0.1820
     18 C           7.2296    0.5507    0.0000 C.ar    1  UNL1       -0.0380
     19 C           5.2697    4.3567    0.0000 C.ar    1  UNL1       -0.0123
     20 C           4.4096    2.8669    0.0000 C.ar    1  UNL1        0.2021
     21 C           4.4096    3.8601    0.0000 C.ar    1  UNL1        0.1653
     22 C           6.7330   -0.3094    0.0000 C.ar    1  UNL1       -0.0123
     23 C           8.2228    0.5507    0.0000 C.ar    1  UNL1       -0.0547
     24 C           3.7015   -3.0017    0.0000 C.3     1  UNL1        0.0397
     25 C           4.6337   -3.3444    0.0000 C.ar    1  UNL1       -0.0231
     26 C           3.5404   -2.0297    0.0000 C.3     1  UNL1       -0.0079
     27 C           3.1080   -4.6164    0.0000 C.3     1  UNL1        0.0032
     28 C           7.2296   -1.1695    0.0000 C.ar    1  UNL1        0.1700
     29 C           4.8030   -4.3231    0.0000 C.ar    1  UNL1       -0.0378
     30 C           4.0402   -4.9591    0.0000 C.3     1  UNL1       -0.0144
     31 C           5.0302    0.5507    0.0000 C.ar    1  UNL1        0.1286
     32 C           8.7194   -0.3094    0.0000 C.ar    1  UNL1       -0.0162
     33 C           4.0370   -1.1695    0.0000 C.ar    1  UNL1       -0.0453
     34 C           8.2228   -1.1695    0.0000 C.ar    1  UNL1        0.1591
     35 C           5.3966   -2.7084    0.0000 C.ar    1  UNL1       -0.0107
     36 C           6.3288   -3.0510    0.0000 C.ar    1  UNL1        0.1703
     37 C           5.7353   -4.6657    0.0000 C.ar    1  UNL1       -0.0128
     38 C           2.0000   -3.2927    0.0000 C.3     1  UNL1       -0.0122
     39 C           4.0370    0.5507    0.0000 C.ar    1  UNL1       -0.0191
     40 C           5.5268   -0.3094    0.0000 C.ar    1  UNL1       -0.0191
     41 C           6.4982   -4.0297    0.0000 C.ar    1  UNL1        0.1624
     42 C           3.5404   -0.3094    0.0000 C.ar    1  UNL1       -0.0550
     43 C           5.0302   -1.1695    0.0000 C.ar    1  UNL1       -0.0550
     44 C           3.5436    5.3601    0.0000 C.3     1  UNL1        0.0790
     45 C           7.6073   -5.3601    0.0000 C.3     1  UNL1        0.0790
     46 H           7.6709    1.8614    0.0000 H       1  UNL1        0.0909
     47 H           8.4607    3.7524    0.0000 H       1  UNL1        0.0818
     48 H           8.0622    4.4427    0.0000 H       1  UNL1        0.0818
     49 H           7.3885    4.8316    0.0000 H       1  UNL1        0.0365
     50 H           6.5915    4.8316    0.0000 H       1  UNL1        0.0365
     51 H           6.1960    1.7209    0.0000 H       1  UNL1        0.0372
     52 H           6.2945    0.9725    0.0000 H       1  UNL1        0.0372
     53 H           8.8502    2.2469    0.0000 H       1  UNL1        0.0778
     54 H           9.4702    2.8669    0.0000 H       1  UNL1        0.0778
     55 H           8.8502    3.4869    0.0000 H       1  UNL1        0.0778
     56 H           7.8132    1.6908    0.0000 H       1  UNL1        0.0778
     57 H           8.6602    1.4639    0.0000 H       1  UNL1        0.0778
     58 H           8.8871    2.3108    0.0000 H       1  UNL1        0.0778
     59 H           5.2697    4.9767    0.0000 H       1  UNL1        0.0658
     60 H           6.1130   -0.3094    0.0000 H       1  UNL1        0.0658
     61 H           8.5328    1.0877    0.0000 H       1  UNL1        0.0621
     62 H           2.9047   -2.7057    0.0000 H       1  UNL1        0.0515
     63 H           3.1164   -1.5772    0.0000 H       1  UNL1        0.0332
     64 H           2.9844   -2.3041    0.0000 H       1  UNL1        0.0332
     65 H           2.4880   -4.6144    0.0000 H       1  UNL1        0.0430
     66 H           2.9984   -5.2266    0.0000 H       1  UNL1        0.0430
     67 H           3.7285   -5.4950    0.0000 H       1  UNL1        0.0326
     68 H           4.5139   -5.3591    0.0000 H       1  UNL1        0.0326
     69 H           9.3394   -0.3094    0.0000 H       1  UNL1        0.0655
     70 H           3.0066    2.6769    0.0000 H       1  UNL1        0.2924
     71 H           5.2908   -2.0975    0.0000 H       1  UNL1        0.0659
     72 H           5.8410   -5.2766    0.0000 H       1  UNL1        0.0658
     73 H           2.2139   -2.7108    0.0000 H       1  UNL1        0.0391
     74 H           1.4181   -3.0788    0.0000 H       1  UNL1        0.0391
     75 H           1.7861   -3.8747    0.0000 H       1  UNL1        0.0391
     76 H           3.7270    1.0877    0.0000 H       1  UNL1        0.0654
     77 H           6.1468   -0.3094    0.0000 H       1  UNL1        0.0654
     78 H           2.9204   -0.3094    0.0000 H       1  UNL1        0.0621
     79 H           5.3402   -1.7065    0.0000 H       1  UNL1        0.0621
     80 H           4.1636    5.3601    0.0000 H       1  UNL1        0.0660
     81 H           3.5436    5.9801    0.0000 H       1  UNL1        0.0660
     82 H           2.9236    5.3601    0.0000 H       1  UNL1        0.0660
     83 H           9.3428   -2.0356    0.0000 H       1  UNL1        0.2923
     84 H           6.9964   -5.4658    0.0000 H       1  UNL1        0.0660
     85 H           7.7130   -5.9710    0.0000 H       1  UNL1        0.0660
     86 H           8.2182   -5.2543    0.0000 H       1  UNL1        0.0660
@<TRIPOS>UNITY_ATOM_ATTR
7 1
charge 1
@<TRIPOS>BOND
     1     1    17    1
     2     1    31    1
     3     2    21    1
     4     2    44    1
     5     3    20    1
     6     3    70    1
     7     4    28    1
     8     4    36    1
     9     5    34    1
    10     5    83    1
    11     6    41    1
    12     6    45    1
    13     7     9    1
    14     7    10    1
    15     7    15    1
    16     7    16    1
    17     8    24    1
    18     8    27    1
    19     8    38    1
    20     9    11    1
    21     9    13    1
    22     9    46    1
    23    10    12    1
    24    10    47    1
    25    10    48    1
    26    11    14   ar
    27    11    17   ar
    28    12    14    1
    29    12    49    1
    30    12    50    1
    31    13    18    1
    32    13    51    1
    33    13    52    1
    34    14    19   ar
    35    15    53    1
    36    15    54    1
    37    15    55    1
    38    16    56    1
    39    16    57    1
    40    16    58    1
    41    17    20   ar
    42    18    22   ar
    43    18    23   ar
    44    19    21   ar
    45    19    59    1
    46    20    21   ar
    47    22    28   ar
    48    22    60    1
    49    23    32   ar
    50    23    61    1
    51    24    25    1
    52    24    26    1
    53    24    62    1
    54    25    29   ar
    55    25    35   ar
    56    26    33    1
    57    26    63    1
    58    26    64    1
    59    27    30    1
    60    27    65    1
    61    27    66    1
    62    28    34   ar
    63    29    30    1
    64    29    37   ar
    65    30    67    1
    66    30    68    1
    67    31    39   ar
    68    31    40   ar
    69    32    34   ar
    70    32    69    1
    71    33    42   ar
    72    33    43   ar
    73    35    36   ar
    74    35    71    1
    75    36    41   ar
    76    37    41   ar
    77    37    72    1
    78    38    73    1
    79    38    74    1
    80    38    75    1
    81    39    42   ar
    82    39    76    1
    83    40    43   ar
    84    40    77    1
    85    42    78    1
    86    43    79    1
    87    44    80    1
    88    44    81    1
    89    44    82    1
    90    45    84    1
    91    45    85    1
    92    45    86    1
