@<TRIPOS>MOLECULE
IMPHY004422
 23 24 0 0 0
SMALL
GASTEIGER

@<TRIPOS>ATOM
      1 O           3.7817   -1.6813    0.0000 O.3     1  UNL1       -0.5059
      2 O           5.5301   -1.6467    0.0000 O.2     1  UNL1       -0.2671
      3 O           2.0000    1.3775    0.0000 O.3     1  UNL1       -0.5066
      4 N           6.3961   -0.1467    0.0000 N.ar    1  UNL1       -0.3259
      5 C           4.6641    0.8533    0.0000 C.ar    1  UNL1       -0.0041
      6 C           4.6641   -0.1467    0.0000 C.ar    1  UNL1        0.0880
      7 C           6.3961    0.8533    0.0000 C.ar    1  UNL1        0.0166
      8 C           5.5301    1.3533    0.0000 C.ar    1  UNL1       -0.0346
      9 C           5.5301   -0.6467    0.0000 C.ar    1  UNL1        0.2602
     10 C           3.7702   -0.6813    0.0000 C.ar    1  UNL1        0.1332
     11 C           3.7702    1.3880    0.0000 C.ar    1  UNL1       -0.0120
     12 C           2.8641    0.8741    0.0000 C.ar    1  UNL1        0.1209
     13 C           2.8641   -0.1675    0.0000 C.ar    1  UNL1        0.0221
     14 C           7.2622    1.3533    0.0000 C.3     1  UNL1       -0.0243
     15 H           5.5301    1.9733    0.0000 H       1  UNL1        0.0641
     16 H           3.7773    2.0079    0.0000 H       1  UNL1        0.0660
     17 H           6.9331   -0.4567    0.0000 H       1  UNL1        0.1686
     18 H           2.3284   -0.4796    0.0000 H       1  UNL1        0.0691
     19 H           7.5722    0.8164    0.0000 H       1  UNL1        0.0292
     20 H           7.7991    1.6633    0.0000 H       1  UNL1        0.0292
     21 H           6.9522    1.8902    0.0000 H       1  UNL1        0.0292
     22 H           3.2484   -1.9975    0.0000 H       1  UNL1        0.2922
     23 H           2.0024    1.9975    0.0000 H       1  UNL1        0.2921
@<TRIPOS>BOND
     1     1    10    1
     2     1    22    1
     3     2     9    2
     4     3    12    1
     5     3    23    1
     6     4     7   ar
     7     4     9   ar
     8     4    17    1
     9     5     6   ar
    10     5     8   ar
    11     5    11   ar
    12     6     9   ar
    13     6    10   ar
    14     7     8   ar
    15     7    14    1
    16     8    15    1
    17    10    13   ar
    18    11    12   ar
    19    11    16    1
    20    12    13   ar
    21    13    18    1
    22    14    19    1
    23    14    20    1
    24    14    21    1
