@<TRIPOS>MOLECULE
IMPHY002607
 33 34 0 0 0
SMALL
GASTEIGER

@<TRIPOS>ATOM
      1 O           6.3580    0.4480    0.0000 O.2     1  UNL1       -0.4213
      2 O           2.8660    0.4827    0.0000 O.3     1  UNL1       -0.4943
      3 O           5.4641   -1.0173    0.0000 O.2     1  UNL1       -0.2915
      4 O           8.1282    0.4585    0.0000 O.2     1  UNL1       -0.2452
      5 C           4.5981    0.4827    0.0000 C.ar    1  UNL1        0.1021
      6 C           5.4641    0.9827    0.0000 C.ar    1  UNL1        0.1530
      7 C           5.4641    1.9827    0.0000 C.ar    1  UNL1        0.0185
      8 C           3.7320    0.9827    0.0000 C.ar    1  UNL1        0.1341
      9 C           4.5981   -0.5173    0.0000 C.2     1  UNL1        0.1742
     10 C           3.7320   -1.0173    0.0000 C.3     1  UNL1        0.0313
     11 C           4.5981    2.4827    0.0000 C.ar    1  UNL1       -0.0476
     12 C           3.7320    1.9827    0.0000 C.ar    1  UNL1       -0.0185
     13 C           6.3580    2.5173    0.0000 C.ar    1  UNL1       -0.0443
     14 C           3.7320   -2.0173    0.0000 C.2     1  UNL1       -0.0723
     15 C           7.2641    2.0035    0.0000 C.ar    1  UNL1        0.0236
     16 C           7.2641    0.9619    0.0000 C.ar    1  UNL1        0.3372
     17 C           2.8660   -2.5173    0.0000 C.3     1  UNL1       -0.0436
     18 C           4.5981   -2.5173    0.0000 C.2     1  UNL1       -0.0993
     19 C           2.0000    0.9827    0.0000 C.3     1  UNL1        0.0788
     20 H           3.5200   -0.4347    0.0000 H       1  UNL1        0.0390
     21 H           3.1215   -1.1250    0.0000 H       1  UNL1        0.0390
     22 H           4.5981    3.1027    0.0000 H       1  UNL1        0.0626
     23 H           3.1951    2.2927    0.0000 H       1  UNL1        0.0654
     24 H           6.3509    3.1373    0.0000 H       1  UNL1        0.0627
     25 H           7.7998    2.3156    0.0000 H       1  UNL1        0.0689
     26 H           2.5560   -1.9804    0.0000 H       1  UNL1        0.0274
     27 H           2.3291   -2.8273    0.0000 H       1  UNL1        0.0274
     28 H           3.1760   -3.0543    0.0000 H       1  UNL1        0.0274
     29 H           4.5981   -3.1373    0.0000 H       1  UNL1        0.0534
     30 H           5.1350   -2.2073    0.0000 H       1  UNL1        0.0534
     31 H           2.3100    1.5196    0.0000 H       1  UNL1        0.0660
     32 H           1.4631    1.2927    0.0000 H       1  UNL1        0.0660
     33 H           1.6900    0.4457    0.0000 H       1  UNL1        0.0660
@<TRIPOS>BOND
     1     1     6   ar
     2     1    16   ar
     3     2     8    1
     4     2    19    1
     5     3     9    2
     6     4    16    2
     7     5     6   ar
     8     5     8   ar
     9     5     9    1
    10     6     7   ar
    11     7    11   ar
    12     7    13   ar
    13     8    12   ar
    14     9    10    1
    15    10    14    1
    16    10    20    1
    17    10    21    1
    18    11    12   ar
    19    11    22    1
    20    12    23    1
    21    13    15   ar
    22    13    24    1
    23    14    17    1
    24    14    18    2
    25    15    16   ar
    26    15    25    1
    27    17    26    1
    28    17    27    1
    29    17    28    1
    30    18    29    1
    31    18    30    1
    32    19    31    1
    33    19    32    1
    34    19    33    1
