@<TRIPOS>MOLECULE
IMPHY003508
 47 47 0 0 0
SMALL
GASTEIGER

@<TRIPOS>ATOM
      1 O           2.5369   -2.9400    0.0000 O.2     1  UNL1       -0.5029
      2 O           6.0010   -2.9400    0.0000 O.2     1  UNL1       -0.2836
      3 O           6.0010   -4.9400    0.0000 O.2     1  UNL1       -0.5031
      4 O           2.5369   -4.9400    0.0000 O.2     1  UNL1       -0.2839
      5 C           6.0010    1.0600    0.0000 C.3     1  UNL1       -0.0531
      6 C           6.8671    1.5600    0.0000 C.3     1  UNL1       -0.0531
      7 C           6.0010    0.0600    0.0000 C.3     1  UNL1       -0.0530
      8 C           6.8671    2.5600    0.0000 C.3     1  UNL1       -0.0531
      9 C           5.1350   -0.4400    0.0000 C.3     1  UNL1       -0.0528
     10 C           7.7331    3.0600    0.0000 C.3     1  UNL1       -0.0531
     11 C           5.1350   -1.4400    0.0000 C.3     1  UNL1       -0.0488
     12 C           7.7331    4.0600    0.0000 C.3     1  UNL1       -0.0533
     13 C           4.2690   -1.9400    0.0000 C.3     1  UNL1       -0.0203
     14 C           8.5991    4.5600    0.0000 C.3     1  UNL1       -0.0559
     15 C           4.2690   -2.9400    0.0000 C.2     1  UNL1        0.0481
     16 C           8.5991    5.5600    0.0000 C.3     1  UNL1       -0.0653
     17 C           3.4030   -3.4400    0.0000 C.2     1  UNL1        0.1707
     18 C           5.1350   -3.4400    0.0000 C.2     1  UNL1        0.2269
     19 C           5.1350   -4.4400    0.0000 C.2     1  UNL1        0.1677
     20 C           3.4030   -4.4400    0.0000 C.2     1  UNL1        0.2240
     21 C           4.2690   -4.9400    0.0000 C.2     1  UNL1        0.0341
     22 H           5.7890    1.6426    0.0000 H       1  UNL1        0.0265
     23 H           5.3905    0.9523    0.0000 H       1  UNL1        0.0265
     24 H           7.0791    0.9774    0.0000 H       1  UNL1        0.0265
     25 H           7.4776    1.6677    0.0000 H       1  UNL1        0.0265
     26 H           6.2131   -0.5226    0.0000 H       1  UNL1        0.0265
     27 H           6.6116    0.1677    0.0000 H       1  UNL1        0.0265
     28 H           6.6550    3.1426    0.0000 H       1  UNL1        0.0265
     29 H           6.2565    2.4523    0.0000 H       1  UNL1        0.0265
     30 H           4.9230    0.1426    0.0000 H       1  UNL1        0.0265
     31 H           4.5244   -0.5477    0.0000 H       1  UNL1        0.0265
     32 H           7.9451    2.4774    0.0000 H       1  UNL1        0.0265
     33 H           8.3437    3.1677    0.0000 H       1  UNL1        0.0265
     34 H           5.3471   -2.0226    0.0000 H       1  UNL1        0.0268
     35 H           5.7456   -1.3323    0.0000 H       1  UNL1        0.0268
     36 H           7.5210    4.6426    0.0000 H       1  UNL1        0.0265
     37 H           7.1225    3.9523    0.0000 H       1  UNL1        0.0265
     38 H           4.0569   -1.3574    0.0000 H       1  UNL1        0.0316
     39 H           3.6584   -2.0477    0.0000 H       1  UNL1        0.0316
     40 H           8.8112    3.9774    0.0000 H       1  UNL1        0.0263
     41 H           9.2097    4.6677    0.0000 H       1  UNL1        0.0263
     42 H           9.2191    5.5600    0.0000 H       1  UNL1        0.0230
     43 H           8.5991    6.1800    0.0000 H       1  UNL1        0.0230
     44 H           7.9791    5.5600    0.0000 H       1  UNL1        0.0230
     45 H           4.2690   -5.5600    0.0000 H       1  UNL1        0.0695
     46 H           2.0000   -3.2500    0.0000 H       1  UNL1        0.2923
     47 H           6.0010   -5.5600    0.0000 H       1  UNL1        0.2923
@<TRIPOS>BOND
     1     1    17    1
     2     1    46    1
     3     2    18    2
     4     3    19    1
     5     3    47    1
     6     4    20    2
     7     5     6    1
     8     5     7    1
     9     5    22    1
    10     5    23    1
    11     6     8    1
    12     6    24    1
    13     6    25    1
    14     7     9    1
    15     7    26    1
    16     7    27    1
    17     8    10    1
    18     8    28    1
    19     8    29    1
    20     9    11    1
    21     9    30    1
    22     9    31    1
    23    10    12    1
    24    10    32    1
    25    10    33    1
    26    11    13    1
    27    11    34    1
    28    11    35    1
    29    12    14    1
    30    12    36    1
    31    12    37    1
    32    13    15    1
    33    13    38    1
    34    13    39    1
    35    14    16    1
    36    14    40    1
    37    14    41    1
    38    15    17    2
    39    15    18    1
    40    16    42    1
    41    16    43    1
    42    16    44    1
    43    17    20    1
    44    18    19    1
    45    19    21    2
    46    20    21    1
    47    21    45    1
