@<TRIPOS>MOLECULE
IMPHY002709
 52 56 0 0 0
SMALL
GASTEIGER

@<TRIPOS>ATOM
      1 O           4.0413    2.3837    0.0000 O.3     1  UNL1       -0.4853
      2 N           5.2612   -0.9180    0.0000 N.ar    1  UNL1       -0.3538
      3 C           5.8157    1.7289    0.0000 C.3     1  UNL1       -0.0038
      4 C           7.0874    0.9342    0.0000 C.3     1  UNL1       -0.0315
      5 C           6.0745    2.6948    0.0000 C.3     1  UNL1        0.1085
      6 C           5.3379    3.6774    0.0000 C.3     1  UNL1       -0.0059
      7 C           7.8646    1.5636    0.0000 C.3     1  UNL1       -0.0458
      8 C           7.5062    2.4971    0.0000 C.3     1  UNL1       -0.0129
      9 C           4.5947    0.8632    0.0000 C.ar    1  UNL1        0.0219
     10 C           7.6320    0.0956    0.0000 C.3     1  UNL1       -0.0433
     11 C           3.7657    1.4224    0.0000 C.ar    1  UNL1        0.1296
     12 C           6.3334    3.6607    0.0000 C.3     1  UNL1       -0.0249
     13 C           4.5381   -0.1769    0.0000 C.ar    1  UNL1        0.0545
     14 C           8.6307    0.1479    0.0000 C.3     1  UNL1       -0.0624
     15 C           7.1781   -0.7954    0.0000 C.3     1  UNL1       -0.0624
     16 C           2.8225    0.9803    0.0000 C.ar    1  UNL1       -0.0078
     17 C           3.6054   -0.6407    0.0000 C.ar    1  UNL1        0.0081
     18 C           2.7418   -0.0582    0.0000 C.ar    1  UNL1       -0.0456
     19 C           3.7601   -1.6646    0.0000 C.ar    1  UNL1        0.0074
     20 C           4.7813   -1.8356    0.0000 C.ar    1  UNL1        0.0475
     21 C           2.0000    1.5490    0.0000 C.3     1  UNL1       -0.0362
     22 C           3.0611   -2.4860    0.0000 C.ar    1  UNL1       -0.0520
     23 C           5.1744   -2.8400    0.0000 C.ar    1  UNL1       -0.0378
     24 C           3.4309   -3.4992    0.0000 C.ar    1  UNL1       -0.0611
     25 C           4.4947   -3.6774    0.0000 C.ar    1  UNL1       -0.0598
     26 H           6.3180    2.0923    0.0000 H       1  UNL1        0.0355
     27 H           7.6998    0.8372    0.0000 H       1  UNL1        0.0309
     28 H           5.6557    4.2098    0.0000 H       1  UNL1        0.0309
     29 H           4.7248    3.7694    0.0000 H       1  UNL1        0.0309
     30 H           8.2022    1.0436    0.0000 H       1  UNL1        0.0269
     31 H           8.4170    1.8450    0.0000 H       1  UNL1        0.0269
     32 H           8.1140    2.6195    0.0000 H       1  UNL1        0.0304
     33 H           7.4871    3.1168    0.0000 H       1  UNL1        0.0304
     34 H           7.0129    0.0631    0.0000 H       1  UNL1        0.0298
     35 H           6.9322    3.5002    0.0000 H       1  UNL1        0.0268
     36 H           6.4938    4.2596    0.0000 H       1  UNL1        0.0268
     37 H           5.7345    3.8212    0.0000 H       1  UNL1        0.0268
     38 H           8.6631   -0.4713    0.0000 H       1  UNL1        0.0232
     39 H           9.2498    0.1803    0.0000 H       1  UNL1        0.0232
     40 H           8.5982    0.7670    0.0000 H       1  UNL1        0.0232
     41 H           6.6257   -0.5140    0.0000 H       1  UNL1        0.0232
     42 H           6.8966   -1.3479    0.0000 H       1  UNL1        0.0232
     43 H           7.7305   -1.0769    0.0000 H       1  UNL1        0.0232
     44 H           2.1836   -0.3279    0.0000 H       1  UNL1        0.0628
     45 H           5.8374   -1.1469    0.0000 H       1  UNL1        0.1659
     46 H           2.3526    2.0590    0.0000 H       1  UNL1        0.0279
     47 H           1.4900    1.9016    0.0000 H       1  UNL1        0.0279
     48 H           1.6474    1.0390    0.0000 H       1  UNL1        0.0279
     49 H           2.4509   -2.3765    0.0000 H       1  UNL1        0.0624
     50 H           5.7870   -2.9353    0.0000 H       1  UNL1        0.0638
     51 H           3.0346   -3.9760    0.0000 H       1  UNL1        0.0618
     52 H           4.7139   -4.2573    0.0000 H       1  UNL1        0.0618
@<TRIPOS>BOND
     1     1     5    1
     2     1    11    1
     3     2    13   ar
     4     2    20   ar
     5     2    45    1
     6     3     4    1
     7     3     6    1
     8     3     9    1
     9     3    26    1
    10     4     7    1
    11     4    10    1
    12     4    27    1
    13     5     6    1
    14     5     8    1
    15     5    12    1
    16     6    28    1
    17     6    29    1
    18     7     8    1
    19     7    30    1
    20     7    31    1
    21     8    32    1
    22     8    33    1
    23     9    11   ar
    24     9    13   ar
    25    10    14    1
    26    10    15    1
    27    10    34    1
    28    11    16   ar
    29    12    35    1
    30    12    36    1
    31    12    37    1
    32    13    17   ar
    33    14    38    1
    34    14    39    1
    35    14    40    1
    36    15    41    1
    37    15    42    1
    38    15    43    1
    39    16    18   ar
    40    16    21    1
    41    17    18   ar
    42    17    19   ar
    43    18    44    1
    44    19    20   ar
    45    19    22   ar
    46    20    23   ar
    47    21    46    1
    48    21    47    1
    49    21    48    1
    50    22    24   ar
    51    22    49    1
    52    23    25   ar
    53    23    50    1
    54    24    25   ar
    55    24    51    1
    56    25    52    1
