@<TRIPOS>MOLECULE
IMPHY016787
 57 56 0 0 0
SMALL
GASTEIGER

@<TRIPOS>ATOM
      1 O           8.9282    0.7500    0.0000 O.3     1  UNL1       -0.4646
      2 O           9.7942   -0.7500    0.0000 O.2     1  UNL1       -0.2509
      3 C          13.2583    0.2500    0.0000 C.3     1  UNL1       -0.0530
      4 C          14.1244    0.7500    0.0000 C.3     1  UNL1       -0.0530
      5 C          12.3923    0.7500    0.0000 C.3     1  UNL1       -0.0526
      6 C           5.4641    0.7500    0.0000 C.3     1  UNL1       -0.0530
      7 C          14.9904    0.2500    0.0000 C.3     1  UNL1       -0.0528
      8 C           6.3301    0.2500    0.0000 C.3     1  UNL1       -0.0500
      9 C           4.5981    0.2500    0.0000 C.3     1  UNL1       -0.0531
     10 C          11.5263    0.2500    0.0000 C.3     1  UNL1       -0.0430
     11 C           7.1962    0.7500    0.0000 C.3     1  UNL1       -0.0185
     12 C           3.7320    0.7500    0.0000 C.3     1  UNL1       -0.0533
     13 C          15.8564    0.7500    0.0000 C.3     1  UNL1       -0.0496
     14 C          10.6603    0.7500    0.0000 C.3     1  UNL1        0.0449
     15 C           8.0622    0.2500    0.0000 C.3     1  UNL1        0.0925
     16 C           2.8660    0.2500    0.0000 C.3     1  UNL1       -0.0559
     17 C          16.7224    0.2500    0.0000 C.3     1  UNL1       -0.0350
     18 C           9.7942    0.2500    0.0000 C.2     1  UNL1        0.3071
     19 C           2.0000    0.7500    0.0000 C.3     1  UNL1       -0.0653
     20 C          17.5885    0.7500    0.0000 C.2     1  UNL1       -0.0911
     21 C          18.4545    0.2500    0.0000 C.2     1  UNL1       -0.1026
     22 H          12.8598   -0.2249    0.0000 H       1  UNL1        0.0265
     23 H          13.6569   -0.2249    0.0000 H       1  UNL1        0.0265
     24 H          14.5229    1.2250    0.0000 H       1  UNL1        0.0265
     25 H          13.7258    1.2250    0.0000 H       1  UNL1        0.0265
     26 H          12.7908    1.2250    0.0000 H       1  UNL1        0.0265
     27 H          11.9938    1.2250    0.0000 H       1  UNL1        0.0265
     28 H           5.8626    1.2250    0.0000 H       1  UNL1        0.0265
     29 H           5.0656    1.2250    0.0000 H       1  UNL1        0.0265
     30 H          14.5919   -0.2249    0.0000 H       1  UNL1        0.0265
     31 H          15.3889   -0.2249    0.0000 H       1  UNL1        0.0265
     32 H           5.9316   -0.2249    0.0000 H       1  UNL1        0.0266
     33 H           6.7287   -0.2249    0.0000 H       1  UNL1        0.0266
     34 H           4.1996   -0.2249    0.0000 H       1  UNL1        0.0265
     35 H           4.9966   -0.2249    0.0000 H       1  UNL1        0.0265
     36 H          11.1278   -0.2249    0.0000 H       1  UNL1        0.0270
     37 H          11.9248   -0.2249    0.0000 H       1  UNL1        0.0270
     38 H           7.5947    1.2250    0.0000 H       1  UNL1        0.0298
     39 H           6.7976    1.2250    0.0000 H       1  UNL1        0.0298
     40 H           4.1306    1.2250    0.0000 H       1  UNL1        0.0265
     41 H           3.3335    1.2250    0.0000 H       1  UNL1        0.0265
     42 H          16.2549    1.2250    0.0000 H       1  UNL1        0.0268
     43 H          15.4579    1.2250    0.0000 H       1  UNL1        0.0268
     44 H          11.0588    1.2250    0.0000 H       1  UNL1        0.0377
     45 H          10.2617    1.2250    0.0000 H       1  UNL1        0.0377
     46 H           7.6636   -0.2249    0.0000 H       1  UNL1        0.0697
     47 H           8.4607   -0.2249    0.0000 H       1  UNL1        0.0697
     48 H           2.4675   -0.2249    0.0000 H       1  UNL1        0.0263
     49 H           3.2646   -0.2249    0.0000 H       1  UNL1        0.0263
     50 H          16.3239   -0.2249    0.0000 H       1  UNL1        0.0307
     51 H          17.1210   -0.2249    0.0000 H       1  UNL1        0.0307
     52 H           2.3100    1.2869    0.0000 H       1  UNL1        0.0230
     53 H           1.4631    1.0600    0.0000 H       1  UNL1        0.0230
     54 H           1.6900    0.2131    0.0000 H       1  UNL1        0.0230
     55 H          17.5885    1.3700    0.0000 H       1  UNL1        0.0566
     56 H          18.4545   -0.3700    0.0000 H       1  UNL1        0.0532
     57 H          18.9914    0.5600    0.0000 H       1  UNL1        0.0532
@<TRIPOS>BOND
     1     1    15    1
     2     1    18    1
     3     2    18    2
     4     3     4    1
     5     3     5    1
     6     3    22    1
     7     3    23    1
     8     4     7    1
     9     4    24    1
    10     4    25    1
    11     5    10    1
    12     5    26    1
    13     5    27    1
    14     6     8    1
    15     6     9    1
    16     6    28    1
    17     6    29    1
    18     7    13    1
    19     7    30    1
    20     7    31    1
    21     8    11    1
    22     8    32    1
    23     8    33    1
    24     9    12    1
    25     9    34    1
    26     9    35    1
    27    10    14    1
    28    10    36    1
    29    10    37    1
    30    11    15    1
    31    11    38    1
    32    11    39    1
    33    12    16    1
    34    12    40    1
    35    12    41    1
    36    13    17    1
    37    13    42    1
    38    13    43    1
    39    14    18    1
    40    14    44    1
    41    14    45    1
    42    15    46    1
    43    15    47    1
    44    16    19    1
    45    16    48    1
    46    16    49    1
    47    17    20    1
    48    17    50    1
    49    17    51    1
    50    19    52    1
    51    19    53    1
    52    19    54    1
    53    20    21    2
    54    20    55    1
    55    21    56    1
    56    21    57    1
