@<TRIPOS>MOLECULE
IMPHY007771
 33 36 0 0 0
SMALL
GASTEIGER

@<TRIPOS>ATOM
      1 O           6.1846    1.1367    0.0000 O.3     1  UNL1       -0.4226
      2 O           6.2795    2.9105    0.0000 O.2     1  UNL1       -0.2449
      3 C           4.3723   -2.0022    0.0000 C.3     1  UNL1       -0.0245
      4 C           3.3836   -2.1053    0.0000 C.3     1  UNL1       -0.0159
      5 C           4.5816   -1.0304    0.0000 C.3     1  UNL1       -0.0002
      6 C           3.9673   -2.9105    0.0000 C.3     1  UNL1       -0.0420
      7 C           3.7155   -0.5304    0.0000 C.3     1  UNL1       -0.0066
      8 C           2.9785   -1.1975    0.0000 C.2     1  UNL1       -0.0690
      9 C           3.7155    0.4696    0.0000 C.3     1  UNL1       -0.0164
     10 C           5.4476   -0.5304    0.0000 C.2     1  UNL1       -0.0345
     11 C           5.4476   -1.5304    0.0000 C.3     1  UNL1       -0.0551
     12 C           4.5816    0.9696    0.0000 C.2     1  UNL1        0.0050
     13 C           5.4476    0.4696    0.0000 C.2     1  UNL1        0.1322
     14 C           2.0000   -0.9913    0.0000 C.2     1  UNL1       -0.0989
     15 C           4.7908    1.9414    0.0000 C.2     1  UNL1        0.0406
     16 C           5.7795    2.0445    0.0000 C.2     1  UNL1        0.3405
     17 C           4.1229    2.6857    0.0000 C.3     1  UNL1       -0.0325
     18 H           5.1803   -2.2662    0.0000 H       1  UNL1        0.0315
     19 H           2.6474   -2.5302    0.0000 H       1  UNL1        0.0349
     20 H           3.5362   -3.3561    0.0000 H       1  UNL1        0.0274
     21 H           4.4810   -3.2576    0.0000 H       1  UNL1        0.0274
     22 H           2.9386   -0.1857    0.0000 H       1  UNL1        0.0357
     23 H           3.5035    1.0522    0.0000 H       1  UNL1        0.0320
     24 H           3.1049    0.3619    0.0000 H       1  UNL1        0.0320
     25 H           5.9845   -0.8404    0.0000 H       1  UNL1        0.0614
     26 H           5.1376   -2.0673    0.0000 H       1  UNL1        0.0238
     27 H           5.9845   -1.8404    0.0000 H       1  UNL1        0.0238
     28 H           5.7576   -0.9935    0.0000 H       1  UNL1        0.0238
     29 H           1.8074   -0.4019    0.0000 H       1  UNL1        0.0535
     30 H           1.5859   -1.4527    0.0000 H       1  UNL1        0.0535
     31 H           4.5844    3.0998    0.0000 H       1  UNL1        0.0280
     32 H           3.7088    3.1472    0.0000 H       1  UNL1        0.0280
     33 H           3.6614    2.2717    0.0000 H       1  UNL1        0.0280
@<TRIPOS>BOND
     1     1    13    1
     2     1    16    1
     3     2    16    2
     4     3     4    1
     5     3     5    1
     6     3     6    1
     7     3    18    1
     8     4     6    1
     9     4     8    1
    10     4    19    1
    11     5     7    1
    12     5    10    1
    13     5    11    1
    14     6    20    1
    15     6    21    1
    16     7     8    1
    17     7     9    1
    18     7    22    1
    19     8    14    2
    20     9    12    1
    21     9    23    1
    22     9    24    1
    23    10    13    2
    24    10    25    1
    25    11    26    1
    26    11    27    1
    27    11    28    1
    28    12    13    1
    29    12    15    2
    30    14    29    1
    31    14    30    1
    32    15    16    1
    33    15    17    1
    34    17    31    1
    35    17    32    1
    36    17    33    1
