@<TRIPOS>MOLECULE
IMPHY005246
 59 61 0 0 0
SMALL
GASTEIGER

@<TRIPOS>ATOM
      1 O           4.2690   -2.1414    0.0000 O.3     1  UNL1       -0.3405
      2 O           6.0010   -2.1414    0.0000 O.3     1  UNL1       -0.3484
      3 O           4.2690   -5.1414    0.0000 O.3     1  UNL1       -0.3864
      4 O           2.5369   -4.1414    0.0000 O.3     1  UNL1       -0.3865
      5 O           6.0010   -4.1414    0.0000 O.3     1  UNL1       -0.3841
      6 O           9.4486    2.3195    0.0000 O.2     1  UNL1       -0.2914
      7 O           7.0469    4.8348    0.0000 O.3     1  UNL1       -0.3940
      8 O           2.5369   -1.1414    0.0000 O.3     1  UNL1       -0.3924
      9 C           8.0650    3.4335    0.0000 C.3     1  UNL1        0.0577
     10 C           7.0763    3.3304    0.0000 C.3     1  UNL1       -0.0124
     11 C           6.8671    2.3586    0.0000 C.ar    1  UNL1       -0.0354
     12 C           7.7331    1.8586    0.0000 C.ar    1  UNL1        0.0244
     13 C           8.4701    2.5257    0.0000 C.2     1  UNL1        0.1720
     14 C           4.2690   -4.1414    0.0000 C.3     1  UNL1        0.1141
     15 C           3.4030   -3.6414    0.0000 C.3     1  UNL1        0.1119
     16 C           5.1350   -3.6414    0.0000 C.3     1  UNL1        0.1341
     17 C           3.4030   -2.6414    0.0000 C.3     1  UNL1        0.1130
     18 C           5.1350   -2.6414    0.0000 C.3     1  UNL1        0.1879
     19 C           7.7331    0.8586    0.0000 C.ar    1  UNL1       -0.0362
     20 C           7.9605    4.4280    0.0000 C.3     1  UNL1        0.0569
     21 C           8.9785    3.8402    0.0000 C.3     1  UNL1       -0.0501
     22 C           6.8671    0.3586    0.0000 C.ar    1  UNL1       -0.0387
     23 C           6.0010    1.8586    0.0000 C.ar    1  UNL1       -0.0547
     24 C           6.0010    0.8586    0.0000 C.ar    1  UNL1       -0.0467
     25 C           6.8671   -0.6414    0.0000 C.3     1  UNL1       -0.0035
     26 C           6.0010   -1.1414    0.0000 C.3     1  UNL1        0.0547
     27 C           2.5369   -2.1414    0.0000 C.3     1  UNL1        0.0730
     28 C           8.5991    0.3586    0.0000 C.3     1  UNL1       -0.0388
     29 C           5.1350    0.3586    0.0000 C.3     1  UNL1       -0.0394
     30 H           7.0772    3.9504    0.0000 H       1  UNL1        0.0324
     31 H           6.4598    3.3965    0.0000 H       1  UNL1        0.0324
     32 H           4.8059   -4.4514    0.0000 H       1  UNL1        0.0648
     33 H           3.4030   -4.2614    0.0000 H       1  UNL1        0.0647
     34 H           5.6720   -3.3314    0.0000 H       1  UNL1        0.0671
     35 H           3.4030   -2.0214    0.0000 H       1  UNL1        0.0647
     36 H           5.1350   -2.0214    0.0000 H       1  UNL1        0.0937
     37 H           8.5790    4.3848    0.0000 H       1  UNL1        0.0567
     38 H           8.1104    5.0296    0.0000 H       1  UNL1        0.0567
     39 H           9.2307    3.2738    0.0000 H       1  UNL1        0.0240
     40 H           9.5449    4.0924    0.0000 H       1  UNL1        0.0240
     41 H           8.7264    4.4066    0.0000 H       1  UNL1        0.0240
     42 H           5.4641    2.1686    0.0000 H       1  UNL1        0.0623
     43 H           7.0791   -1.2240    0.0000 H       1  UNL1        0.0336
     44 H           7.4776   -0.5337    0.0000 H       1  UNL1        0.0336
     45 H           5.7890   -0.5588    0.0000 H       1  UNL1        0.0564
     46 H           5.3905   -1.2490    0.0000 H       1  UNL1        0.0564
     47 H           1.9264   -2.0337    0.0000 H       1  UNL1        0.0584
     48 H           2.3249   -2.7240    0.0000 H       1  UNL1        0.0584
     49 H           8.2891   -0.1783    0.0000 H       1  UNL1        0.0278
     50 H           9.1360    0.0486    0.0000 H       1  UNL1        0.0278
     51 H           8.9091    0.8956    0.0000 H       1  UNL1        0.0278
     52 H           4.8250    0.8956    0.0000 H       1  UNL1        0.0278
     53 H           4.5981    0.0486    0.0000 H       1  UNL1        0.0278
     54 H           5.4450   -0.1783    0.0000 H       1  UNL1        0.0278
     55 H           3.7320   -5.4514    0.0000 H       1  UNL1        0.2100
     56 H           2.0000   -3.8314    0.0000 H       1  UNL1        0.2100
     57 H           6.5380   -3.8314    0.0000 H       1  UNL1        0.2101
     58 H           6.9821    5.4514    0.0000 H       1  UNL1        0.2094
     59 H           2.0000   -0.8314    0.0000 H       1  UNL1        0.2095
@<TRIPOS>BOND
     1     1    17    1
     2     1    18    1
     3    18     2    1
     4     2    26    1
     5    14     3    1
     6     3    55    1
     7    15     4    1
     8     4    56    1
     9    16     5    1
    10     5    57    1
    11     6    13    2
    12     7    20    1
    13     7    58    1
    14     8    27    1
    15     8    59    1
    16     9    10    1
    17     9    13    1
    18     9    20    1
    19     9    21    1
    20    10    11    1
    21    10    30    1
    22    10    31    1
    23    11    12   ar
    24    11    23   ar
    25    12    13    1
    26    12    19   ar
    27    14    15    1
    28    14    16    1
    29    14    32    1
    30    15    17    1
    31    15    33    1
    32    16    18    1
    33    16    34    1
    34    17    27    1
    35    17    35    1
    36    18    36    1
    37    19    22   ar
    38    19    28    1
    39    20    37    1
    40    20    38    1
    41    21    39    1
    42    21    40    1
    43    21    41    1
    44    22    24   ar
    45    22    25    1
    46    23    24   ar
    47    23    42    1
    48    24    29    1
    49    25    26    1
    50    25    43    1
    51    25    44    1
    52    26    45    1
    53    26    46    1
    54    27    47    1
    55    27    48    1
    56    28    49    1
    57    28    50    1
    58    28    51    1
    59    29    52    1
    60    29    53    1
    61    29    54    1
