@<TRIPOS>MOLECULE
IMPHY015130
 40 41 0 0 0
SMALL
GASTEIGER

@<TRIPOS>ATOM
      1 O           4.9698    2.0052    0.0000 O.3     1  UNL1       -0.3888
      2 C           5.0000   -0.7059    0.0000 C.3     1  UNL1        0.0004
      3 C           5.5878    0.1031    0.0000 C.3     1  UNL1       -0.0030
      4 C           5.5878   -1.5149    0.0000 C.3     1  UNL1       -0.0341
      5 C           6.5388   -0.2059    0.0000 C.3     1  UNL1       -0.0465
      6 C           6.5388   -1.2059    0.0000 C.3     1  UNL1       -0.0493
      7 C           5.2788    1.0542    0.0000 C.3     1  UNL1        0.0641
      8 C           4.5000   -1.5719    0.0000 C.3     1  UNL1       -0.0245
      9 C           4.5000    0.1601    0.0000 C.2     1  UNL1       -0.0767
     10 C           5.2788   -2.4660    0.0000 C.3     1  UNL1       -0.0616
     11 C           6.2298    1.3632    0.0000 C.3     1  UNL1       -0.0361
     12 C           4.3277    0.7452    0.0000 C.3     1  UNL1       -0.0361
     13 C           3.5000   -1.5719    0.0000 C.2     1  UNL1       -0.0803
     14 C           3.5000    0.1601    0.0000 C.2     1  UNL1       -0.0625
     15 C           3.0000   -0.7059    0.0000 C.2     1  UNL1       -0.0546
     16 C           2.0000   -0.7059    0.0000 C.3     1  UNL1       -0.0400
     17 H           6.1888    0.7042    0.0000 H       1  UNL1        0.0337
     18 H           6.0262   -1.9533    0.0000 H       1  UNL1        0.0307
     19 H           7.1554   -0.2707    0.0000 H       1  UNL1        0.0269
     20 H           6.6678    0.4005    0.0000 H       1  UNL1        0.0269
     21 H           6.6678   -1.8124    0.0000 H       1  UNL1        0.0268
     22 H           7.1554   -1.1411    0.0000 H       1  UNL1        0.0268
     23 H           4.3923   -2.1825    0.0000 H       1  UNL1        0.0316
     24 H           5.0826   -1.7840    0.0000 H       1  UNL1        0.0316
     25 H           4.8100    0.6971    0.0000 H       1  UNL1        0.0578
     26 H           4.6891   -2.2744    0.0000 H       1  UNL1        0.0233
     27 H           5.0872   -3.0556    0.0000 H       1  UNL1        0.0233
     28 H           5.8684   -2.6576    0.0000 H       1  UNL1        0.0233
     29 H           6.4214    0.7735    0.0000 H       1  UNL1        0.0257
     30 H           6.8195    1.5548    0.0000 H       1  UNL1        0.0257
     31 H           6.0382    1.9528    0.0000 H       1  UNL1        0.0257
     32 H           4.1361    1.3348    0.0000 H       1  UNL1        0.0257
     33 H           3.7381    0.5536    0.0000 H       1  UNL1        0.0257
     34 H           4.5193    0.1555    0.0000 H       1  UNL1        0.0257
     35 H           3.1900   -2.1089    0.0000 H       1  UNL1        0.0575
     36 H           3.1900    0.6971    0.0000 H       1  UNL1        0.0617
     37 H           5.3846    2.4660    0.0000 H       1  UNL1        0.2101
     38 H           2.0000   -0.0859    0.0000 H       1  UNL1        0.0277
     39 H           1.3800   -0.7059    0.0000 H       1  UNL1        0.0277
     40 H           2.0000   -1.3259    0.0000 H       1  UNL1        0.0277
@<TRIPOS>BOND
     1     1     7    1
     2     1    37    1
     3     2     3    1
     4     2     4    1
     5     2     8    1
     6     2     9    1
     7     3     5    1
     8     3     7    1
     9     3    17    1
    10     4     6    1
    11     4    10    1
    12     4    18    1
    13     5     6    1
    14     5    19    1
    15     5    20    1
    16     6    21    1
    17     6    22    1
    18     7    11    1
    19     7    12    1
    20     8    13    1
    21     8    23    1
    22     8    24    1
    23     9    14    2
    24     9    25    1
    25    10    26    1
    26    10    27    1
    27    10    28    1
    28    11    29    1
    29    11    30    1
    30    11    31    1
    31    12    32    1
    32    12    33    1
    33    12    34    1
    34    13    15    2
    35    13    35    1
    36    14    15    1
    37    14    36    1
    38    15    16    1
    39    16    38    1
    40    16    39    1
    41    16    40    1
