@<TRIPOS>MOLECULE
IMPHY002560
 47 49 0 0 0
SMALL
GASTEIGER

@<TRIPOS>ATOM
      1 O           2.0000    0.0707    0.0000 O.2     1  UNL1       -0.2927
      2 O           4.6423    1.5780    0.0000 O.3     1  UNL1       -0.5029
      3 O           6.4082    2.6158    0.0000 O.3     1  UNL1       -0.5031
      4 C           4.6641   -1.4534    0.0000 C.3     1  UNL1        0.0175
      5 C           3.7702   -1.9881    0.0000 C.3     1  UNL1       -0.0151
      6 C           4.6641   -0.4534    0.0000 C.2     1  UNL1       -0.0226
      7 C           2.8641   -1.4742    0.0000 C.3     1  UNL1        0.0161
      8 C           4.8379   -2.4382    0.0000 C.3     1  UNL1       -0.0515
      9 C           5.5301   -1.9534    0.0000 C.2     1  UNL1       -0.0727
     10 C           3.2802   -2.8598    0.0000 C.3     1  UNL1       -0.0583
     11 C           4.1230   -2.9238    0.0000 C.3     1  UNL1       -0.0583
     12 C           5.5301    0.0466    0.0000 C.ar    1  UNL1        0.0313
     13 C           3.7702    0.0812    0.0000 C.2     1  UNL1       -0.0145
     14 C           2.8641   -0.4326    0.0000 C.2     1  UNL1        0.1569
     15 C           6.3961   -0.4534    0.0000 C.ar    1  UNL1       -0.0139
     16 C           6.3961   -1.4534    0.0000 C.2     1  UNL1       -0.0570
     17 C           5.5141    1.0881    0.0000 C.ar    1  UNL1        0.1667
     18 C           7.3062    0.0534    0.0000 C.ar    1  UNL1       -0.0469
     19 C           7.3142    1.0950    0.0000 C.ar    1  UNL1        0.0009
     20 C           6.4121    1.6158    0.0000 C.ar    1  UNL1        0.1624
     21 C           8.1821    1.5917    0.0000 C.3     1  UNL1       -0.0179
     22 C           9.0462    1.0884    0.0000 C.3     1  UNL1       -0.0585
     23 C           8.1860    2.5917    0.0000 C.3     1  UNL1       -0.0585
     24 H           2.2532   -1.3682    0.0000 H       1  UNL1        0.0351
     25 H           2.6550   -2.0579    0.0000 H       1  UNL1        0.0351
     26 H           4.2273   -2.5459    0.0000 H       1  UNL1        0.0241
     27 H           4.9456   -3.0488    0.0000 H       1  UNL1        0.0241
     28 H           5.4484   -2.3305    0.0000 H       1  UNL1        0.0241
     29 H           5.5301   -2.5734    0.0000 H       1  UNL1        0.0581
     30 H           3.5429   -3.1425    0.0000 H       1  UNL1        0.0235
     31 H           2.7397   -2.5561    0.0000 H       1  UNL1        0.0235
     32 H           2.9764   -3.4003    0.0000 H       1  UNL1        0.0235
     33 H           3.8207   -3.1636    0.0000 H       1  UNL1        0.0235
     34 H           4.3418   -3.5039    0.0000 H       1  UNL1        0.0235
     35 H           4.7031   -2.7050    0.0000 H       1  UNL1        0.0235
     36 H           3.7773    0.7012    0.0000 H       1  UNL1        0.0655
     37 H           6.9331   -1.7634    0.0000 H       1  UNL1        0.0621
     38 H           7.8395   -0.2628    0.0000 H       1  UNL1        0.0628
     39 H           8.7203    1.8996    0.0000 H       1  UNL1        0.0345
     40 H           4.6352    2.1980    0.0000 H       1  UNL1        0.2923
     41 H           8.8060    2.5893    0.0000 H       1  UNL1        0.0235
     42 H           8.1884    3.2117    0.0000 H       1  UNL1        0.0235
     43 H           7.5660    2.5941    0.0000 H       1  UNL1        0.0235
     44 H           8.7342    0.5526    0.0000 H       1  UNL1        0.0235
     45 H           9.5820    0.7763    0.0000 H       1  UNL1        0.0235
     46 H           9.3583    1.6241    0.0000 H       1  UNL1        0.0235
     47 H           5.8701    2.9238    0.0000 H       1  UNL1        0.2923
@<TRIPOS>BOND
     1     1    14    2
     2     2    17    1
     3     2    40    1
     4     3    20    1
     5     3    47    1
     6     4     5    1
     7     4     6    1
     8     4     8    1
     9     4     9    1
    10     5     7    1
    11     5    10    1
    12     5    11    1
    13     6    12    1
    14     6    13    2
    15     7    14    1
    16     7    24    1
    17     7    25    1
    18     8    26    1
    19     8    27    1
    20     8    28    1
    21     9    16    2
    22     9    29    1
    23    10    31    1
    24    10    32    1
    25    10    33    1
    26    11    30    1
    27    11    34    1
    28    11    35    1
    29    12    15   ar
    30    12    17   ar
    31    13    14    1
    32    13    36    1
    33    15    16    1
    34    15    18   ar
    35    16    37    1
    36    17    20   ar
    37    18    19   ar
    38    18    38    1
    39    19    20   ar
    40    19    21    1
    41    21    22    1
    42    21    23    1
    43    21    39    1
    44    22    44    1
    45    22    45    1
    46    22    46    1
    47    23    41    1
    48    23    42    1
    49    23    43    1
