@<TRIPOS>MOLECULE
IMPHY016270
 44 43 0 0 0
SMALL
GASTEIGER

@<TRIPOS>ATOM
      1 O           9.7942    0.2500    0.0000 O.3     1  UNL1       -0.4644
      2 O           8.9282   -1.2500    0.0000 O.2     1  UNL1       -0.2509
      3 C           5.4641   -0.2500    0.0000 C.3     1  UNL1       -0.0530
      4 C           6.3301    0.2500    0.0000 C.3     1  UNL1       -0.0526
      5 C           4.5981    0.2500    0.0000 C.3     1  UNL1       -0.0531
      6 C           7.1962   -0.2500    0.0000 C.3     1  UNL1       -0.0430
      7 C           3.7320   -0.2500    0.0000 C.3     1  UNL1       -0.0533
      8 C          11.5263    0.2500    0.0000 C.3     1  UNL1       -0.0098
      9 C           8.0622    0.2500    0.0000 C.3     1  UNL1        0.0449
     10 C          12.3923   -0.2500    0.0000 C.3     1  UNL1       -0.0502
     11 C          10.6603   -0.2500    0.0000 C.3     1  UNL1        0.0950
     12 C           2.8660    0.2500    0.0000 C.3     1  UNL1       -0.0559
     13 C          11.5263    1.2500    0.0000 C.3     1  UNL1       -0.0593
     14 C           8.9282   -0.2500    0.0000 C.2     1  UNL1        0.3071
     15 C          13.2583    0.2500    0.0000 C.3     1  UNL1       -0.0649
     16 C           2.0000   -0.2500    0.0000 C.3     1  UNL1       -0.0653
     17 H           5.0656   -0.7249    0.0000 H       1  UNL1        0.0265
     18 H           5.8626   -0.7249    0.0000 H       1  UNL1        0.0265
     19 H           6.7287    0.7249    0.0000 H       1  UNL1        0.0265
     20 H           5.9316    0.7249    0.0000 H       1  UNL1        0.0265
     21 H           4.9966    0.7249    0.0000 H       1  UNL1        0.0265
     22 H           4.1996    0.7249    0.0000 H       1  UNL1        0.0265
     23 H           6.7976   -0.7249    0.0000 H       1  UNL1        0.0270
     24 H           7.5947   -0.7249    0.0000 H       1  UNL1        0.0270
     25 H           3.3335   -0.7249    0.0000 H       1  UNL1        0.0265
     26 H           4.1306   -0.7249    0.0000 H       1  UNL1        0.0265
     27 H          12.0632    0.5600    0.0000 H       1  UNL1        0.0331
     28 H           8.4607    0.7249    0.0000 H       1  UNL1        0.0377
     29 H           7.6636    0.7249    0.0000 H       1  UNL1        0.0377
     30 H          11.9938   -0.7249    0.0000 H       1  UNL1        0.0266
     31 H          12.7908   -0.7249    0.0000 H       1  UNL1        0.0266
     32 H          10.2617   -0.7249    0.0000 H       1  UNL1        0.0700
     33 H          11.0588   -0.7249    0.0000 H       1  UNL1        0.0700
     34 H           3.2646    0.7249    0.0000 H       1  UNL1        0.0263
     35 H           2.4675    0.7249    0.0000 H       1  UNL1        0.0263
     36 H          12.1463    1.2500    0.0000 H       1  UNL1        0.0233
     37 H          11.5263    1.8700    0.0000 H       1  UNL1        0.0233
     38 H          10.9063    1.2500    0.0000 H       1  UNL1        0.0233
     39 H          13.5683   -0.2869    0.0000 H       1  UNL1        0.0230
     40 H          13.7953    0.5600    0.0000 H       1  UNL1        0.0230
     41 H          12.9483    0.7869    0.0000 H       1  UNL1        0.0230
     42 H           1.6900    0.2869    0.0000 H       1  UNL1        0.0230
     43 H           1.4631   -0.5600    0.0000 H       1  UNL1        0.0230
     44 H           2.3100   -0.7869    0.0000 H       1  UNL1        0.0230
@<TRIPOS>BOND
     1     1    11    1
     2     1    14    1
     3     2    14    2
     4     3     4    1
     5     3     5    1
     6     3    17    1
     7     3    18    1
     8     4     6    1
     9     4    19    1
    10     4    20    1
    11     5     7    1
    12     5    21    1
    13     5    22    1
    14     6     9    1
    15     6    23    1
    16     6    24    1
    17     7    12    1
    18     7    25    1
    19     7    26    1
    20     8    10    1
    21     8    11    1
    22     8    13    1
    23     8    27    1
    24     9    14    1
    25     9    28    1
    26     9    29    1
    27    10    15    1
    28    10    30    1
    29    10    31    1
    30    11    32    1
    31    11    33    1
    32    12    16    1
    33    12    34    1
    34    12    35    1
    35    13    36    1
    36    13    37    1
    37    13    38    1
    38    15    39    1
    39    15    40    1
    40    15    41    1
    41    16    42    1
    42    16    43    1
    43    16    44    1
