@<TRIPOS>MOLECULE
IMPHY001200
 49 53 0 0 0
SMALL
GASTEIGER

@<TRIPOS>ATOM
      1 O           4.2864   -3.3846    0.0000 O.3     1  UNL1       -0.4814
      2 O           7.9086    2.8460    0.0000 O.3     1  UNL1       -0.4778
      3 O           6.0427   -0.2304    0.0000 O.2     1  UNL1       -0.4500
      4 O           7.8129    0.7665    0.0000 O.3     1  UNL1       -0.5009
      5 O           2.5405   -0.2273    0.0000 O.3     1  UNL1       -0.5058
      6 O           3.4446    1.2696    0.0000 O.2     1  UNL1       -0.2863
      7 C           5.2260   -3.9271    0.0000 C.3     1  UNL1        0.1235
      8 C           7.9170    3.9310    0.0000 C.3     1  UNL1        0.1237
      9 C           5.1928   -1.7719    0.0000 C.ar    1  UNL1        0.0597
     10 C           5.1767   -0.7304    0.0000 C.ar    1  UNL1        0.1536
     11 C           5.1767    1.2696    0.0000 C.ar    1  UNL1        0.0691
     12 C           4.3107   -0.2304    0.0000 C.ar    1  UNL1        0.1067
     13 C           6.9608    2.3181    0.0000 C.ar    1  UNL1        0.1738
     14 C           4.2947   -2.2997    0.0000 C.ar    1  UNL1        0.1359
     15 C           6.0587    2.8389    0.0000 C.ar    1  UNL1        0.0211
     16 C           6.0427    0.7696    0.0000 C.ar    1  UNL1        0.1842
     17 C           6.1614   -3.3774    0.0000 C.2     1  UNL1       -0.0408
     18 C           6.9527    1.2765    0.0000 C.ar    1  UNL1        0.2030
     19 C           4.3107    0.7696    0.0000 C.ar    1  UNL1        0.2039
     20 C           5.1606    2.3111    0.0000 C.ar    1  UNL1       -0.0365
     21 C           6.9774    4.4735    0.0000 C.2     1  UNL1       -0.0409
     22 C           6.1447   -2.2925    0.0000 C.2     1  UNL1       -0.0478
     23 C           6.0420    3.9237    0.0000 C.2     1  UNL1       -0.0512
     24 C           3.4007   -0.7372    0.0000 C.ar    1  UNL1        0.1347
     25 C           5.7293   -4.7912    0.0000 C.3     1  UNL1       -0.0215
     26 C           4.7293   -4.7951    0.0000 C.3     1  UNL1       -0.0215
     27 C           3.3926   -1.7788    0.0000 C.ar    1  UNL1        0.0231
     28 C           8.4203    4.7951    0.0000 C.3     1  UNL1       -0.0215
     29 C           8.9170    3.9271    0.0000 C.3     1  UNL1       -0.0215
     30 H           6.7019   -3.6812    0.0000 H       1  UNL1        0.0611
     31 H           4.6202    2.6149    0.0000 H       1  UNL1        0.0633
     32 H           6.9750    5.0935    0.0000 H       1  UNL1        0.0611
     33 H           6.6756   -1.9722    0.0000 H       1  UNL1        0.0624
     34 H           5.5015    4.2275    0.0000 H       1  UNL1        0.0623
     35 H           4.1912   -4.4871    0.0000 H       1  UNL1        0.0271
     36 H           4.4214   -5.3332    0.0000 H       1  UNL1        0.0271
     37 H           5.1936   -5.1033    0.0000 H       1  UNL1        0.0271
     38 H           6.0414   -5.3269    0.0000 H       1  UNL1        0.0271
     39 H           6.2651   -4.4791    0.0000 H       1  UNL1        0.0271
     40 H           5.2675   -5.1030    0.0000 H       1  UNL1        0.0271
     41 H           2.8545   -2.0868    0.0000 H       1  UNL1        0.0691
     42 H           8.9146    3.3071    0.0000 H       1  UNL1        0.0271
     43 H           9.5370    3.9247    0.0000 H       1  UNL1        0.0271
     44 H           8.9561    4.4830    0.0000 H       1  UNL1        0.0271
     45 H           8.7324    5.3308    0.0000 H       1  UNL1        0.0271
     46 H           7.8846    5.1071    0.0000 H       1  UNL1        0.0271
     47 H           8.9194    4.5471    0.0000 H       1  UNL1        0.0271
     48 H           8.3534    1.0702    0.0000 H       1  UNL1        0.2924
     49 H           2.0000   -0.5310    0.0000 H       1  UNL1        0.2922
@<TRIPOS>BOND
     1     1     7    1
     2     1    14    1
     3     2     8    1
     4     2    13    1
     5     3    10   ar
     6     3    16   ar
     7     4    18    1
     8     4    48    1
     9     5    24    1
    10     5    49    1
    11     6    19    2
    12     7    17    1
    13     7    25    1
    14     7    26    1
    15     8    21    1
    16     8    28    1
    17     8    29    1
    18     9    10   ar
    19     9    14   ar
    20     9    22    1
    21    10    12   ar
    22    11    16   ar
    23    11    19   ar
    24    11    20   ar
    25    12    19   ar
    26    12    24   ar
    27    13    15   ar
    28    13    18   ar
    29    14    27   ar
    30    15    20   ar
    31    15    23    1
    32    16    18   ar
    33    17    22    2
    34    17    30    1
    35    20    31    1
    36    21    23    2
    37    21    32    1
    38    22    33    1
    39    23    34    1
    40    24    27   ar
    41    25    37    1
    42    25    38    1
    43    25    39    1
    44    26    35    1
    45    26    36    1
    46    26    40    1
    47    27    41    1
    48    28    44    1
    49    28    45    1
    50    28    46    1
    51    29    42    1
    52    29    43    1
    53    29    47    1
