@<TRIPOS>MOLECULE
IMPHY017568
 30 30 0 0 0
SMALL
GASTEIGER

@<TRIPOS>ATOM
      1 O           4.5981    1.7500    0.0000 O.3     1  UNL1       -0.4618
      2 O           3.7320    3.2500    0.0000 O.2     1  UNL1       -0.2512
      3 C           3.7320    0.2500    0.0000 C.3     1  UNL1       -0.0120
      4 C           3.7320    1.2500    0.0000 C.3     1  UNL1        0.1006
      5 C           2.8660   -0.2500    0.0000 C.3     1  UNL1       -0.0243
      6 C           2.8660   -1.2500    0.0000 C.ar    1  UNL1       -0.0472
      7 C           2.8660    1.7500    0.0000 C.3     1  UNL1       -0.0277
      8 C           3.7320   -1.7500    0.0000 C.ar    1  UNL1       -0.0586
      9 C           2.0000   -1.7500    0.0000 C.ar    1  UNL1       -0.0586
     10 C           3.7320   -2.7500    0.0000 C.ar    1  UNL1       -0.0615
     11 C           2.0000   -2.7500    0.0000 C.ar    1  UNL1       -0.0615
     12 C           4.5981    2.7500    0.0000 C.2     1  UNL1        0.3042
     13 C           2.8660   -3.2500    0.0000 C.ar    1  UNL1       -0.0617
     14 C           5.4641    3.2500    0.0000 C.3     1  UNL1        0.0332
     15 H           3.9441   -0.3326    0.0000 H       1  UNL1        0.0304
     16 H           4.3426    0.3577    0.0000 H       1  UNL1        0.0304
     17 H           3.7320    2.1000    0.0000 H       1  UNL1        0.0731
     18 H           2.6540    0.3326    0.0000 H       1  UNL1        0.0314
     19 H           2.2554   -0.3577    0.0000 H       1  UNL1        0.0314
     20 H           3.1760    2.2869    0.0000 H       1  UNL1        0.0265
     21 H           2.3291    2.0600    0.0000 H       1  UNL1        0.0265
     22 H           2.5560    1.2131    0.0000 H       1  UNL1        0.0265
     23 H           4.2690   -1.4400    0.0000 H       1  UNL1        0.0620
     24 H           1.4631   -1.4400    0.0000 H       1  UNL1        0.0620
     25 H           4.2690   -3.0600    0.0000 H       1  UNL1        0.0618
     26 H           1.4631   -3.0600    0.0000 H       1  UNL1        0.0618
     27 H           2.8660   -3.8700    0.0000 H       1  UNL1        0.0618
     28 H           5.7741    2.7131    0.0000 H       1  UNL1        0.0342
     29 H           6.0010    3.5600    0.0000 H       1  UNL1        0.0342
     30 H           5.1541    3.7869    0.0000 H       1  UNL1        0.0342
@<TRIPOS>BOND
     1     1     4    1
     2     1    12    1
     3     2    12    2
     4     3     4    1
     5     3     5    1
     6     3    15    1
     7     3    16    1
     8     4     7    1
     9     4    17    1
    10     5     6    1
    11     5    18    1
    12     5    19    1
    13     6     8   ar
    14     6     9   ar
    15     7    20    1
    16     7    21    1
    17     7    22    1
    18     8    10   ar
    19     8    23    1
    20     9    11   ar
    21     9    24    1
    22    10    13   ar
    23    10    25    1
    24    11    13   ar
    25    11    26    1
    26    12    14    1
    27    13    27    1
    28    14    28    1
    29    14    29    1
    30    14    30    1
