@<TRIPOS>MOLECULE
IMPHY004432
 24 24 0 0 0
SMALL
GASTEIGER

@<TRIPOS>ATOM
      1 O           2.5369   -0.6900    0.0000 O.3     1  UNL1       -0.5062
      2 O           6.0010   -2.6900    0.0000 O.3     1  UNL1       -0.5067
      3 O           6.0010    2.3100    0.0000 O.3     1  UNL1       -0.4649
      4 O           4.2690    2.3100    0.0000 O.2     1  UNL1       -0.2456
      5 C           4.2690   -0.6900    0.0000 C.ar    1  UNL1        0.0201
      6 C           3.4030   -1.1900    0.0000 C.ar    1  UNL1        0.1242
      7 C           5.1350   -1.1900    0.0000 C.ar    1  UNL1       -0.0095
      8 C           5.1350   -2.1900    0.0000 C.ar    1  UNL1        0.1176
      9 C           3.4030   -2.1900    0.0000 C.ar    1  UNL1       -0.0161
     10 C           4.2690    0.3100    0.0000 C.2     1  UNL1       -0.0442
     11 C           4.2690   -2.6900    0.0000 C.ar    1  UNL1       -0.0167
     12 C           5.1350    0.8100    0.0000 C.2     1  UNL1        0.0232
     13 C           5.1350    1.8100    0.0000 C.2     1  UNL1        0.3317
     14 C           6.0010    3.3100    0.0000 C.3     1  UNL1        0.0820
     15 H           5.6720   -0.8800    0.0000 H       1  UNL1        0.0661
     16 H           2.8660   -2.5000    0.0000 H       1  UNL1        0.0655
     17 H           3.7320    0.6200    0.0000 H       1  UNL1        0.0627
     18 H           4.2690   -3.3100    0.0000 H       1  UNL1        0.0655
     19 H           5.6720    0.5000    0.0000 H       1  UNL1        0.0689
     20 H           2.0000   -1.0000    0.0000 H       1  UNL1        0.2922
     21 H           6.0010   -3.3100    0.0000 H       1  UNL1        0.2921
     22 H           6.6210    3.3100    0.0000 H       1  UNL1        0.0661
     23 H           6.0010    3.9300    0.0000 H       1  UNL1        0.0661
     24 H           5.3810    3.3100    0.0000 H       1  UNL1        0.0661
@<TRIPOS>BOND
     1     1     6    1
     2     1    20    1
     3     2     8    1
     4     2    21    1
     5     3    13    1
     6     3    14    1
     7     4    13    2
     8     5     6   ar
     9     5     7   ar
    10     5    10    1
    11     6     9   ar
    12     7     8   ar
    13     7    15    1
    14     8    11   ar
    15     9    11   ar
    16     9    16    1
    17    10    12    2
    18    10    17    1
    19    11    18    1
    20    12    13    1
    21    12    19    1
    22    14    22    1
    23    14    23    1
    24    14    24    1
