@<TRIPOS>MOLECULE
IMPHY017316
 16 16 0 0 0
SMALL
GASTEIGER

@<TRIPOS>ATOM
      1 O           3.7601   -0.7694    0.0000 O.2     1  UNL1       -0.4625
      2 O           6.2633    0.1785    0.0000 O.3     1  UNL1       -0.3873
      3 C           4.5691   -0.1816    0.0000 C.ar    1  UNL1        0.1304
      4 C           2.9511   -0.1816    0.0000 C.ar    1  UNL1        0.1023
      5 C           4.2601    0.7694    0.0000 C.ar    1  UNL1       -0.0181
      6 C           3.2601    0.7694    0.0000 C.ar    1  UNL1       -0.0206
      7 C           5.5202   -0.4907    0.0000 C.3     1  UNL1        0.1019
      8 C           2.0000   -0.4907    0.0000 C.3     1  UNL1       -0.0064
      9 H           4.6245    1.2710    0.0000 H       1  UNL1        0.0653
     10 H           2.8956    1.2710    0.0000 H       1  UNL1        0.0652
     11 H           5.2291   -1.0381    0.0000 H       1  UNL1        0.0638
     12 H           6.0087   -0.8724    0.0000 H       1  UNL1        0.0638
     13 H           1.8084    0.0990    0.0000 H       1  UNL1        0.0308
     14 H           1.4103   -0.6822    0.0000 H       1  UNL1        0.0308
     15 H           2.1916   -1.0803    0.0000 H       1  UNL1        0.0308
     16 H           6.8530   -0.0131    0.0000 H       1  UNL1        0.2100
@<TRIPOS>BOND
     1     1     3   ar
     2     1     4   ar
     3     2     7    1
     4     2    16    1
     5     3     5   ar
     6     3     7    1
     7     4     6   ar
     8     4     8    1
     9     5     6   ar
    10     5     9    1
    11     6    10    1
    12     7    11    1
    13     7    12    1
    14     8    13    1
    15     8    14    1
    16     8    15    1
