@<TRIPOS>MOLECULE
IMPHY006181
 47 47 0 0 0
SMALL
GASTEIGER

@<TRIPOS>ATOM
      1 O           3.7320    0.2500    0.0000 O.3     1  UNL1       -0.5062
      2 O           5.4641    4.2500    0.0000 O.3     1  UNL1       -0.3907
      3 O           8.0622   -4.2500    0.0000 O.3     1  UNL1       -0.4775
      4 O           8.9282   -2.7500    0.0000 O.2     1  UNL1       -0.2458
      5 C           5.4641    0.2500    0.0000 C.ar    1  UNL1       -0.0014
      6 C           4.5981   -1.2500    0.0000 C.ar    1  UNL1       -0.0014
      7 C           4.5981   -0.2500    0.0000 C.ar    1  UNL1        0.1238
      8 C           5.4641    1.2500    0.0000 C.3     1  UNL1       -0.0057
      9 C           3.7320   -1.7500    0.0000 C.3     1  UNL1       -0.0058
     10 C           6.3301   -0.2500    0.0000 C.ar    1  UNL1       -0.0476
     11 C           6.3301   -1.2500    0.0000 C.ar    1  UNL1       -0.0241
     12 C           5.4641   -1.7500    0.0000 C.ar    1  UNL1       -0.0476
     13 C           6.3301    1.7500    0.0000 C.2     1  UNL1       -0.0785
     14 C           3.7320   -2.7500    0.0000 C.2     1  UNL1       -0.0809
     15 C           6.3301    2.7500    0.0000 C.2     1  UNL1       -0.0512
     16 C           2.8660   -3.2500    0.0000 C.2     1  UNL1       -0.0793
     17 C           7.1962   -1.7500    0.0000 C.2     1  UNL1       -0.0478
     18 C           5.4641    3.2500    0.0000 C.3     1  UNL1        0.0651
     19 C           7.1962    3.2500    0.0000 C.3     1  UNL1       -0.0416
     20 C           2.8660   -4.2500    0.0000 C.3     1  UNL1       -0.0440
     21 C           2.0000   -2.7500    0.0000 C.3     1  UNL1       -0.0440
     22 C           7.1962   -2.7500    0.0000 C.2     1  UNL1        0.0229
     23 C           8.0622   -3.2500    0.0000 C.2     1  UNL1        0.3296
     24 H           5.2520    1.8326    0.0000 H       1  UNL1        0.0357
     25 H           4.8535    1.1423    0.0000 H       1  UNL1        0.0357
     26 H           3.5200   -1.1674    0.0000 H       1  UNL1        0.0357
     27 H           3.1215   -1.8577    0.0000 H       1  UNL1        0.0357
     28 H           6.8671    0.0600    0.0000 H       1  UNL1        0.0627
     29 H           5.4641   -2.3700    0.0000 H       1  UNL1        0.0627
     30 H           6.8671    1.4400    0.0000 H       1  UNL1        0.0576
     31 H           4.2690   -3.0600    0.0000 H       1  UNL1        0.0575
     32 H           7.7331   -1.4400    0.0000 H       1  UNL1        0.0626
     33 H           3.1951   -0.0600    0.0000 H       1  UNL1        0.2922
     34 H           4.8535    3.3577    0.0000 H       1  UNL1        0.0604
     35 H           5.2520    2.6674    0.0000 H       1  UNL1        0.0604
     36 H           7.5062    2.7131    0.0000 H       1  UNL1        0.0275
     37 H           7.7331    3.5600    0.0000 H       1  UNL1        0.0275
     38 H           6.8862    3.7869    0.0000 H       1  UNL1        0.0275
     39 H           2.3100   -2.2131    0.0000 H       1  UNL1        0.0274
     40 H           1.4631   -2.4400    0.0000 H       1  UNL1        0.0274
     41 H           2.2460   -4.2500    0.0000 H       1  UNL1        0.0274
     42 H           2.8660   -4.8700    0.0000 H       1  UNL1        0.0274
     43 H           3.4860   -4.2500    0.0000 H       1  UNL1        0.0274
     44 H           1.6900   -3.2869    0.0000 H       1  UNL1        0.0274
     45 H           6.6592   -3.0600    0.0000 H       1  UNL1        0.0689
     46 H           4.9272    4.5600    0.0000 H       1  UNL1        0.2098
     47 H           8.5991   -4.5600    0.0000 H       1  UNL1        0.2954
@<TRIPOS>BOND
     1     1     7    1
     2     1    33    1
     3     2    18    1
     4     2    46    1
     5     3    23    1
     6     3    47    1
     7     4    23    2
     8     5     7   ar
     9     5     8    1
    10     5    10   ar
    11     6     7   ar
    12     6     9    1
    13     6    12   ar
    14     8    13    1
    15     8    24    1
    16     8    25    1
    17     9    14    1
    18     9    26    1
    19     9    27    1
    20    10    11   ar
    21    10    28    1
    22    11    12   ar
    23    11    17    1
    24    12    29    1
    25    13    15    2
    26    13    30    1
    27    14    16    2
    28    14    31    1
    29    15    18    1
    30    15    19    1
    31    16    20    1
    32    16    21    1
    33    17    22    2
    34    17    32    1
    35    18    34    1
    36    18    35    1
    37    19    36    1
    38    19    37    1
    39    19    38    1
    40    20    41    1
    41    20    42    1
    42    20    43    1
    43    21    39    1
    44    21    40    1
    45    21    44    1
    46    22    23    1
    47    22    45    1
