@<TRIPOS>MOLECULE
IMPHY012563
 77 81 0 0 0
SMALL
GASTEIGER

@<TRIPOS>ATOM
      1 O           6.0580    1.0277    0.0000 O.3     1  UNL1       -0.3712
      2 O           8.9765    1.9760    0.0000 O.3     1  UNL1       -0.3712
      3 O           6.8671   -3.5601    0.0000 O.3     1  UNL1       -0.4535
      4 O           5.1350   -3.5601    0.0000 O.3     1  UNL1       -0.3313
      5 O           8.5991   -2.5601    0.0000 O.3     1  UNL1       -0.4913
      6 O           5.1350   -2.5601    0.0000 O.3     1  UNL1       -0.4913
      7 O           6.4460    5.5640    0.0000 O.3     1  UNL1       -0.4913
      8 O           9.9100    5.5580    0.0000 O.3     1  UNL1       -0.4913
      9 O           6.8671   -5.5601    0.0000 O.3     1  UNL1       -0.3829
     10 O           5.1350   -6.5601    0.0000 O.3     1  UNL1       -0.3864
     11 O           3.4030   -5.5601    0.0000 O.3     1  UNL1       -0.3865
     12 O           8.1797    6.5610    0.0000 O.3     1  UNL1       -0.5009
     13 O           2.5369   -4.0601    0.0000 O.3     1  UNL1       -0.3924
     14 C           7.6761    1.0277    0.0000 C.3     1  UNL1        0.0205
     15 C           7.3671    1.9788    0.0000 C.3     1  UNL1        0.0205
     16 C           6.8671    0.4399    0.0000 C.3     1  UNL1        0.0892
     17 C           8.1728    2.5610    0.0000 C.3     1  UNL1        0.0892
     18 C           6.3671    1.9788    0.0000 C.3     1  UNL1        0.0544
     19 C           8.6702    1.0303    0.0000 C.3     1  UNL1        0.0544
     20 C           6.8671   -0.5601    0.0000 C.ar    1  UNL1       -0.0114
     21 C           8.1745    3.5610    0.0000 C.ar    1  UNL1       -0.0114
     22 C           6.0010   -1.0601    0.0000 C.ar    1  UNL1       -0.0104
     23 C           7.7331   -1.0601    0.0000 C.ar    1  UNL1       -0.0104
     24 C           9.0414    4.0595    0.0000 C.ar    1  UNL1       -0.0104
     25 C           7.3094    4.0625    0.0000 C.ar    1  UNL1       -0.0104
     26 C           7.7331   -2.0601    0.0000 C.ar    1  UNL1        0.1656
     27 C           6.0010   -2.0601    0.0000 C.ar    1  UNL1        0.1656
     28 C           6.8671   -2.5601    0.0000 C.ar    1  UNL1        0.2067
     29 C           7.3111    5.0625    0.0000 C.ar    1  UNL1        0.1653
     30 C           9.0432    5.0595    0.0000 C.ar    1  UNL1        0.1653
     31 C           6.0010   -4.0601    0.0000 C.3     1  UNL1        0.2311
     32 C           6.0010   -5.0601    0.0000 C.3     1  UNL1        0.1454
     33 C           5.1350   -5.5601    0.0000 C.3     1  UNL1        0.1152
     34 C           4.2690   -5.0601    0.0000 C.3     1  UNL1        0.1120
     35 C           4.2690   -4.0601    0.0000 C.3     1  UNL1        0.1140
     36 C           8.1780    5.5610    0.0000 C.ar    1  UNL1        0.2010
     37 C           3.4030   -3.5601    0.0000 C.3     1  UNL1        0.0731
     38 C           9.4651   -2.0601    0.0000 C.3     1  UNL1        0.0790
     39 C           4.2690   -2.0601    0.0000 C.3     1  UNL1        0.0790
     40 C           5.5791    5.0655    0.0000 C.3     1  UNL1        0.0790
     41 C          10.7752    5.0565    0.0000 C.3     1  UNL1        0.0790
     42 H           7.9398    0.2197    0.0000 H       1  UNL1        0.0356
     43 H           7.1054    2.7875    0.0000 H       1  UNL1        0.0356
     44 H           6.3146    0.1585    0.0000 H       1  UNL1        0.0650
     45 H           8.7256    2.8418    0.0000 H       1  UNL1        0.0650
     46 H           6.4319    2.5954    0.0000 H       1  UNL1        0.0564
     47 H           5.7606    2.1077    0.0000 H       1  UNL1        0.0564
     48 H           8.6066    0.4136    0.0000 H       1  UNL1        0.0564
     49 H           9.2768    0.9023    0.0000 H       1  UNL1        0.0564
     50 H           5.4641   -0.7501    0.0000 H       1  UNL1        0.0659
     51 H           8.2700   -0.7501    0.0000 H       1  UNL1        0.0659
     52 H           9.5778    3.7486    0.0000 H       1  UNL1        0.0659
     53 H           6.7719    3.7534    0.0000 H       1  UNL1        0.0659
     54 H           6.0010   -3.4401    0.0000 H       1  UNL1        0.1084
     55 H           6.0010   -5.6801    0.0000 H       1  UNL1        0.0683
     56 H           4.5981   -5.8701    0.0000 H       1  UNL1        0.0648
     57 H           4.2690   -5.6801    0.0000 H       1  UNL1        0.0647
     58 H           4.2690   -3.4401    0.0000 H       1  UNL1        0.0647
     59 H           3.8015   -3.0851    0.0000 H       1  UNL1        0.0584
     60 H           3.0044   -3.0851    0.0000 H       1  UNL1        0.0584
     61 H           7.4040   -5.2501    0.0000 H       1  UNL1        0.2102
     62 H           5.6720   -6.8701    0.0000 H       1  UNL1        0.2100
     63 H           3.4030   -6.1801    0.0000 H       1  UNL1        0.2100
     64 H           8.7172    6.8701    0.0000 H       1  UNL1        0.2924
     65 H           9.7751   -2.5970    0.0000 H       1  UNL1        0.0660
     66 H          10.0021   -1.7501    0.0000 H       1  UNL1        0.0660
     67 H           9.1551   -1.5231    0.0000 H       1  UNL1        0.0660
     68 H           4.5790   -1.5231    0.0000 H       1  UNL1        0.0660
     69 H           3.7320   -1.7501    0.0000 H       1  UNL1        0.0660
     70 H           3.9590   -2.5970    0.0000 H       1  UNL1        0.0660
     71 H           5.2700    5.6030    0.0000 H       1  UNL1        0.0660
     72 H           5.0416    4.7564    0.0000 H       1  UNL1        0.0660
     73 H           5.8881    4.5280    0.0000 H       1  UNL1        0.0660
     74 H          10.4643    4.5201    0.0000 H       1  UNL1        0.0660
     75 H          11.3116    4.7456    0.0000 H       1  UNL1        0.0660
     76 H          11.0861    5.5929    0.0000 H       1  UNL1        0.0660
     77 H           2.0000   -3.7501    0.0000 H       1  UNL1        0.2095
@<TRIPOS>BOND
     1     1    16    1
     2     1    18    1
     3     2    17    1
     4     2    19    1
     5     3    28    1
     6    31     3    1
     7     4    31    1
     8     4    35    1
     9     5    26    1
    10     5    38    1
    11     6    27    1
    12     6    39    1
    13     7    29    1
    14     7    40    1
    15     8    30    1
    16     8    41    1
    17    32     9    1
    18     9    61    1
    19    33    10    1
    20    10    62    1
    21    34    11    1
    22    11    63    1
    23    12    36    1
    24    12    64    1
    25    13    37    1
    26    13    77    1
    27    14    15    1
    28    14    16    1
    29    14    19    1
    30    14    42    1
    31    15    17    1
    32    15    18    1
    33    15    43    1
    34    16    20    1
    35    16    44    1
    36    17    21    1
    37    17    45    1
    38    18    46    1
    39    18    47    1
    40    19    48    1
    41    19    49    1
    42    20    22   ar
    43    20    23   ar
    44    21    24   ar
    45    21    25   ar
    46    22    27   ar
    47    22    50    1
    48    23    26   ar
    49    23    51    1
    50    24    30   ar
    51    24    52    1
    52    25    29   ar
    53    25    53    1
    54    26    28   ar
    55    27    28   ar
    56    29    36   ar
    57    30    36   ar
    58    31    32    1
    59    31    54    1
    60    32    33    1
    61    32    55    1
    62    33    34    1
    63    33    56    1
    64    34    35    1
    65    34    57    1
    66    35    37    1
    67    35    58    1
    68    37    59    1
    69    37    60    1
    70    38    65    1
    71    38    66    1
    72    38    67    1
    73    39    68    1
    74    39    69    1
    75    39    70    1
    76    40    71    1
    77    40    72    1
    78    40    73    1
    79    41    74    1
    80    41    75    1
    81    41    76    1
