@<TRIPOS>MOLECULE
IMPHY005842
 22 21 0 0 0
SMALL
GASTEIGER

@<TRIPOS>ATOM
      1 S           2.5369    0.2500    0.0000 S.3     1  UNL1       -0.1783
      2 O           8.5991   -0.2500    0.0000 O.3     1  UNL1       -0.3950
      3 C           5.1350   -0.2500    0.0000 C.3     1  UNL1       -0.0523
      4 C           6.0010    0.2500    0.0000 C.3     1  UNL1       -0.0510
      5 C           4.2690    0.2500    0.0000 C.3     1  UNL1       -0.0442
      6 C           6.8671   -0.2500    0.0000 C.3     1  UNL1       -0.0297
      7 C           3.4030   -0.2500    0.0000 C.3     1  UNL1       -0.0093
      8 C           7.7331    0.2500    0.0000 C.3     1  UNL1        0.0442
      9 H           4.7365   -0.7249    0.0000 H       1  UNL1        0.0266
     10 H           5.5335   -0.7249    0.0000 H       1  UNL1        0.0266
     11 H           6.3996    0.7249    0.0000 H       1  UNL1        0.0266
     12 H           5.6025    0.7249    0.0000 H       1  UNL1        0.0266
     13 H           4.6675    0.7249    0.0000 H       1  UNL1        0.0273
     14 H           3.8705    0.7249    0.0000 H       1  UNL1        0.0273
     15 H           6.4685   -0.7249    0.0000 H       1  UNL1        0.0287
     16 H           7.2656   -0.7249    0.0000 H       1  UNL1        0.0287
     17 H           3.0044   -0.7249    0.0000 H       1  UNL1        0.0374
     18 H           3.8015   -0.7249    0.0000 H       1  UNL1        0.0374
     19 H           8.1316    0.7249    0.0000 H       1  UNL1        0.0557
     20 H           7.3346    0.7249    0.0000 H       1  UNL1        0.0557
     21 H           2.0000   -0.0600    0.0000 H       1  UNL1        0.1016
     22 H           9.1360    0.0600    0.0000 H       1  UNL1        0.2094
@<TRIPOS>BOND
     1     1     7    1
     2     1    21    1
     3     2     8    1
     4     2    22    1
     5     3     4    1
     6     3     5    1
     7     3     9    1
     8     3    10    1
     9     4     6    1
    10     4    11    1
    11     4    12    1
    12     5     7    1
    13     5    13    1
    14     5    14    1
    15     6     8    1
    16     6    15    1
    17     6    16    1
    18     7    17    1
    19     7    18    1
    20     8    19    1
    21     8    20    1
