@<TRIPOS>MOLECULE
IMPHY017579
 23 22 0 0 0
SMALL
GASTEIGER

@<TRIPOS>ATOM
      1 O           2.5369   -0.2500    0.0000 O.3     1  UNL1       -0.3910
      2 C           6.0010   -0.2500    0.0000 C.3     1  UNL1       -0.0313
      3 C           6.8671    0.2500    0.0000 C.3     1  UNL1       -0.0313
      4 C           5.1350    0.2500    0.0000 C.2     1  UNL1       -0.0855
      5 C           7.7331   -0.2500    0.0000 C.2     1  UNL1       -0.0879
      6 C           4.2690   -0.2500    0.0000 C.2     1  UNL1       -0.0629
      7 C           8.5991    0.2500    0.0000 C.2     1  UNL1       -0.0910
      8 C           3.4030    0.2500    0.0000 C.3     1  UNL1        0.0624
      9 C           9.4651   -0.2500    0.0000 C.3     1  UNL1       -0.0468
     10 H           5.6025   -0.7249    0.0000 H       1  UNL1        0.0310
     11 H           6.3996   -0.7249    0.0000 H       1  UNL1        0.0310
     12 H           7.2656    0.7249    0.0000 H       1  UNL1        0.0310
     13 H           6.4685    0.7249    0.0000 H       1  UNL1        0.0310
     14 H           5.1350    0.8700    0.0000 H       1  UNL1        0.0570
     15 H           7.7331   -0.8700    0.0000 H       1  UNL1        0.0569
     16 H           4.2690   -0.8700    0.0000 H       1  UNL1        0.0591
     17 H           8.5991    0.8700    0.0000 H       1  UNL1        0.0566
     18 H           3.8015    0.7249    0.0000 H       1  UNL1        0.0601
     19 H           3.0044    0.7249    0.0000 H       1  UNL1        0.0601
     20 H           9.1551   -0.7869    0.0000 H       1  UNL1        0.0272
     21 H          10.0021   -0.5600    0.0000 H       1  UNL1        0.0272
     22 H           9.7751    0.2869    0.0000 H       1  UNL1        0.0272
     23 H           2.0000    0.0600    0.0000 H       1  UNL1        0.2098
@<TRIPOS>BOND
     1     1     8    1
     2     1    23    1
     3     2     3    1
     4     2     4    1
     5     2    10    1
     6     2    11    1
     7     3     5    1
     8     3    12    1
     9     3    13    1
    10     4     6    2
    11     4    14    1
    12     5     7    2
    13     5    15    1
    14     6     8    1
    15     6    16    1
    16     7     9    1
    17     7    17    1
    18     8    18    1
    19     8    19    1
    20     9    20    1
    21     9    21    1
    22     9    22    1
