@<TRIPOS>MOLECULE
IMPHY002552
 22 23 0 0 0
SMALL
GASTEIGER

@<TRIPOS>ATOM
      1 O           2.8660    1.4470    0.0000 O.3     1  UNL1       -0.4944
      2 O           5.9674    1.4085    0.0000 O.2     1  UNL1       -0.2956
      3 N           4.6783   -1.3577    0.0000 N.ar    1  UNL1       -0.3599
      4 C           3.7320   -0.0530    0.0000 C.ar    1  UNL1        0.0515
      5 C           3.7320   -1.0530    0.0000 C.ar    1  UNL1        0.0507
      6 C           4.6783    0.2518    0.0000 C.ar    1  UNL1        0.0427
      7 C           2.8660    0.4470    0.0000 C.ar    1  UNL1        0.1299
      8 C           5.2619   -0.5530    0.0000 C.ar    1  UNL1        0.0131
      9 C           2.8660   -1.5530    0.0000 C.ar    1  UNL1       -0.0375
     10 C           2.0000   -0.0530    0.0000 C.ar    1  UNL1       -0.0192
     11 C           2.0000   -1.0530    0.0000 C.ar    1  UNL1       -0.0563
     12 C           4.9889    1.2023    0.0000 C.2     1  UNL1        0.1523
     13 C           2.0000    1.9470    0.0000 C.3     1  UNL1        0.0788
     14 H           4.8709   -1.9470    0.0000 H       1  UNL1        0.1654
     15 H           5.8819   -0.5530    0.0000 H       1  UNL1        0.0814
     16 H           2.8660   -2.1730    0.0000 H       1  UNL1        0.0638
     17 H           1.4631    0.2570    0.0000 H       1  UNL1        0.0654
     18 H           1.4631   -1.3630    0.0000 H       1  UNL1        0.0619
     19 H           4.5749    1.6638    0.0000 H       1  UNL1        0.1082
     20 H           2.3100    2.4840    0.0000 H       1  UNL1        0.0660
     21 H           1.4631    2.2570    0.0000 H       1  UNL1        0.0660
     22 H           1.6900    1.4101    0.0000 H       1  UNL1        0.0660
@<TRIPOS>BOND
     1     1     7    1
     2     1    13    1
     3     2    12    2
     4     3     5   ar
     5     3     8   ar
     6     3    14    1
     7     4     5   ar
     8     4     6   ar
     9     4     7   ar
    10     5     9   ar
    11     6     8   ar
    12     6    12    1
    13     7    10   ar
    14     8    15    1
    15     9    11   ar
    16     9    16    1
    17    10    11   ar
    18    10    17    1
    19    11    18    1
    20    12    19    1
    21    13    20    1
    22    13    21    1
    23    13    22    1
