@<TRIPOS>MOLECULE
IMPHY012445
 69 72 0 0 0
SMALL
GASTEIGER

@<TRIPOS>ATOM
      1 O           2.0000   -3.9849    0.0000 O.2     1  UNL1       -0.2974
      2 N           5.0822    4.1635    0.0000 N.3     1  UNL1       -0.3049
      3 C           4.1519   -1.7287    0.0000 C.3     1  UNL1       -0.0189
      4 C           3.2958   -2.3220    0.0000 C.3     1  UNL1       -0.0132
      5 C           4.0580   -0.6913    0.0000 C.3     1  UNL1       -0.0102
      6 C           3.5964   -3.3129    0.0000 C.3     1  UNL1        0.0234
      7 C           4.9742   -2.3579    0.0000 C.3     1  UNL1       -0.0459
      8 C           4.6316   -3.3350    0.0000 C.3     1  UNL1       -0.0425
      9 C           2.3573   -1.8701    0.0000 C.3     1  UNL1       -0.0276
     10 C           4.9590   -0.2574    0.0000 C.3     1  UNL1       -0.0451
     11 C           3.1571   -0.2574    0.0000 C.2     1  UNL1       -0.0477
     12 C           4.9738   -1.1590    0.0000 C.3     1  UNL1       -0.0585
     13 C           2.4739   -2.8917    0.0000 C.3     1  UNL1       -0.0581
     14 C           4.5580    1.4994    0.0000 C.3     1  UNL1       -0.0130
     15 C           5.1815    0.7175    0.0000 C.3     1  UNL1       -0.0454
     16 C           2.2875   -0.8308    0.0000 C.2     1  UNL1       -0.0800
     17 C           5.0927    2.3933    0.0000 C.3     1  UNL1       -0.0128
     18 C           3.5580    1.4994    0.0000 C.2     1  UNL1       -0.0656
     19 C           2.9922   -4.1097    0.0000 C.2     1  UNL1        0.1339
     20 C           2.9346    0.7175    0.0000 C.2     1  UNL1       -0.0591
     21 C           4.5789    3.2994    0.0000 C.3     1  UNL1        0.0158
     22 C           3.0234    2.3933    0.0000 C.3     1  UNL1       -0.0297
     23 C           3.5372    3.2994    0.0000 C.3     1  UNL1       -0.0331
     24 C           5.9644    2.8833    0.0000 C.3     1  UNL1       -0.0578
     25 C           5.9529    1.8833    0.0000 C.3     1  UNL1       -0.0578
     26 C           3.3801   -5.0314    0.0000 C.3     1  UNL1       -0.0058
     27 C           4.5855    5.0314    0.0000 C.3     1  UNL1       -0.0128
     28 C           6.0822    4.1596    0.0000 C.3     1  UNL1       -0.0128
     29 H           4.7974   -1.1106    0.0000 H       1  UNL1        0.0354
     30 H           2.9861   -3.2037    0.0000 H       1  UNL1        0.0383
     31 H           5.5345   -2.6234    0.0000 H       1  UNL1        0.0271
     32 H           5.2972   -1.8286    0.0000 H       1  UNL1        0.0271
     33 H           4.5533   -3.9501    0.0000 H       1  UNL1        0.0272
     34 H           5.2350   -3.4775    0.0000 H       1  UNL1        0.0272
     35 H           1.7407   -1.8052    0.0000 H       1  UNL1        0.0313
     36 H           2.1879   -2.4665    0.0000 H       1  UNL1        0.0313
     37 H           5.0970   -0.8618    0.0000 H       1  UNL1        0.0271
     38 H           5.5790   -0.2574    0.0000 H       1  UNL1        0.0271
     39 H           5.3270   -1.6686    0.0000 H       1  UNL1        0.0235
     40 H           5.4833   -0.8058    0.0000 H       1  UNL1        0.0235
     41 H           4.6206   -0.6494    0.0000 H       1  UNL1        0.0235
     42 H           2.1207   -2.3822    0.0000 H       1  UNL1        0.0236
     43 H           1.9644   -3.2449    0.0000 H       1  UNL1        0.0236
     44 H           2.8271   -3.4013    0.0000 H       1  UNL1        0.0236
     45 H           5.4061    1.5564    0.0000 H       1  UNL1        0.0351
     46 H           5.7401    0.4485    0.0000 H       1  UNL1        0.0271
     47 H           5.5681    1.2023    0.0000 H       1  UNL1        0.0271
     48 H           1.7320   -0.5554    0.0000 H       1  UNL1        0.0575
     49 H           2.3301    0.8555    0.0000 H       1  UNL1        0.0620
     50 H           5.1988    3.2958    0.0000 H       1  UNL1        0.0468
     51 H           2.5444    2.7869    0.0000 H       1  UNL1        0.0311
     52 H           2.5536    1.9887    0.0000 H       1  UNL1        0.0311
     53 H           3.6433    3.9102    0.0000 H       1  UNL1        0.0284
     54 H           2.9535    3.5084    0.0000 H       1  UNL1        0.0284
     55 H           6.2682    2.3428    0.0000 H       1  UNL1        0.0236
     56 H           6.5049    3.1870    0.0000 H       1  UNL1        0.0236
     57 H           5.6607    3.4238    0.0000 H       1  UNL1        0.0236
     58 H           5.6367    1.3500    0.0000 H       1  UNL1        0.0236
     59 H           6.4862    1.5672    0.0000 H       1  UNL1        0.0236
     60 H           6.2691    2.4167    0.0000 H       1  UNL1        0.0236
     61 H           2.8087   -5.2719    0.0000 H       1  UNL1        0.0306
     62 H           3.6206   -5.6029    0.0000 H       1  UNL1        0.0306
     63 H           3.9516   -4.7909    0.0000 H       1  UNL1        0.0306
     64 H           5.1237    5.3393    0.0000 H       1  UNL1        0.0391
     65 H           4.2776    5.5695    0.0000 H       1  UNL1        0.0391
     66 H           4.0474    4.7235    0.0000 H       1  UNL1        0.0391
     67 H           6.0798    3.5396    0.0000 H       1  UNL1        0.0391
     68 H           6.7022    4.1572    0.0000 H       1  UNL1        0.0391
     69 H           6.0846    4.7796    0.0000 H       1  UNL1        0.0391
@<TRIPOS>BOND
     1     1    19    2
     2    21     2    1
     3     2    27    1
     4     2    28    1
     5     3     4    1
     6     3     5    1
     7     3     7    1
     8     3    12    1
     9     4     6    1
    10     4     9    1
    11     4    13    1
    12     5    10    1
    13     5    11    1
    14     5    29    1
    15     6     8    1
    16     6    19    1
    17     6    30    1
    18     7     8    1
    19     7    31    1
    20     7    32    1
    21     8    33    1
    22     8    34    1
    23     9    16    1
    24     9    35    1
    25     9    36    1
    26    10    15    1
    27    10    37    1
    28    10    38    1
    29    11    16    2
    30    11    20    1
    31    12    39    1
    32    12    40    1
    33    12    41    1
    34    13    42    1
    35    13    43    1
    36    13    44    1
    37    14    15    1
    38    14    17    1
    39    14    18    1
    40    14    45    1
    41    15    46    1
    42    15    47    1
    43    16    48    1
    44    17    21    1
    45    17    24    1
    46    17    25    1
    47    18    20    2
    48    18    22    1
    49    19    26    1
    50    20    49    1
    51    21    23    1
    52    21    50    1
    53    22    23    1
    54    22    51    1
    55    22    52    1
    56    23    53    1
    57    23    54    1
    58    24    55    1
    59    24    56    1
    60    24    57    1
    61    25    58    1
    62    25    59    1
    63    25    60    1
    64    26    61    1
    65    26    62    1
    66    26    63    1
    67    27    64    1
    68    27    65    1
    69    27    66    1
    70    28    67    1
    71    28    68    1
    72    28    69    1
