@<TRIPOS>MOLECULE
IMPHY014848
 57 62 0 0 0
SMALL
GASTEIGER

@<TRIPOS>ATOM
      1 O           4.7327   -2.2066    0.0000 O.3     1  UNL1       -0.3912
      2 O           4.2008    2.4073    0.0000 O.3     1  UNL1       -0.3869
      3 O           2.4027   -1.3395    0.0000 O.2     1  UNL1       -0.2968
      4 N           6.1828    0.6908    0.0000 N.3     1  UNL1       -0.2982
      5 C           5.6205   -0.6751    0.0000 C.3     1  UNL1        0.0197
      6 C           4.7545    0.8249    0.0000 C.3     1  UNL1        0.0096
      7 C           5.6205    1.3249    0.0000 C.3     1  UNL1       -0.0159
      8 C           5.2545    0.3249    0.0000 C.3     1  UNL1        0.0224
      9 C           4.7545   -0.1751    0.0000 C.3     1  UNL1       -0.0160
     10 C           6.4865   -0.1751    0.0000 C.3     1  UNL1       -0.0244
     11 C           6.4865    0.8249    0.0000 C.3     1  UNL1       -0.0441
     12 C           7.3965   -0.6820    0.0000 C.3     1  UNL1       -0.0158
     13 C           5.6044   -1.7166    0.0000 C.3     1  UNL1        0.0629
     14 C           3.7552    0.7301    0.0000 C.3     1  UNL1       -0.0308
     15 C           3.9836    1.4312    0.0000 C.3     1  UNL1        0.0829
     16 C           3.9836   -0.7815    0.0000 C.3     1  UNL1        0.0105
     17 C           7.0860    0.2663    0.0000 C.3     1  UNL1        0.0049
     18 C           7.4046   -1.7236    0.0000 C.3     1  UNL1       -0.0438
     19 C           2.6039    0.3249    0.0000 C.3     1  UNL1        0.0413
     20 C           6.5025   -2.2444    0.0000 C.3     1  UNL1       -0.0257
     21 C           3.0282    1.2091    0.0000 C.2     1  UNL1       -0.0378
     22 C           3.0282   -0.5594    0.0000 C.2     1  UNL1        0.1408
     23 C           8.2702   -1.1686    0.0000 C.3     1  UNL1       -0.0581
     24 C           6.2148    1.6903    0.0000 C.3     1  UNL1       -0.0036
     25 C           2.4027    1.9892    0.0000 C.2     1  UNL1       -0.0963
     26 C           7.0963    2.1624    0.0000 C.3     1  UNL1       -0.0523
     27 H           5.6205    2.1749    0.0000 H       1  UNL1        0.0322
     28 H           4.4045    0.3249    0.0000 H       1  UNL1        0.0472
     29 H           4.7545   -1.0251    0.0000 H       1  UNL1        0.0318
     30 H           7.3236   -0.3227    0.0000 H       1  UNL1        0.0313
     31 H           7.0971    0.7172    0.0000 H       1  UNL1        0.0272
     32 H           6.6986    1.4075    0.0000 H       1  UNL1        0.0272
     33 H           5.5985   -2.3366    0.0000 H       1  UNL1        0.0599
     34 H           3.9665    1.3130    0.0000 H       1  UNL1        0.0281
     35 H           3.8884    0.1245    0.0000 H       1  UNL1        0.0281
     36 H           3.5431    1.8675    0.0000 H       1  UNL1        0.0646
     37 H           3.7118   -1.3388    0.0000 H       1  UNL1        0.0345
     38 H           4.4660   -1.1709    0.0000 H       1  UNL1        0.0345
     39 H           7.7047    0.3063    0.0000 H       1  UNL1        0.0432
     40 H           7.2015    0.8755    0.0000 H       1  UNL1        0.0432
     41 H           7.6181   -2.3056    0.0000 H       1  UNL1        0.0272
     42 H           8.0146   -1.6128    0.0000 H       1  UNL1        0.0272
     43 H           1.7760    0.1324    0.0000 H       1  UNL1        0.0424
     44 H           6.1015   -2.7173    0.0000 H       1  UNL1        0.0290
     45 H           6.8998   -2.7204    0.0000 H       1  UNL1        0.0290
     46 H           7.9685   -1.7102    0.0000 H       1  UNL1        0.0236
     47 H           8.8118   -1.4703    0.0000 H       1  UNL1        0.0236
     48 H           8.5718   -0.6269    0.0000 H       1  UNL1        0.0236
     49 H           6.0214    2.2794    0.0000 H       1  UNL1        0.0424
     50 H           5.6011    1.6022    0.0000 H       1  UNL1        0.0424
     51 H           4.7255   -2.8266    0.0000 H       1  UNL1        0.2098
     52 H           3.7441    2.8266    0.0000 H       1  UNL1        0.2102
     53 H           2.6276    2.5670    0.0000 H       1  UNL1        0.0535
     54 H           1.7898    1.8952    0.0000 H       1  UNL1        0.0535
     55 H           7.3890    1.6158    0.0000 H       1  UNL1        0.0242
     56 H           7.6429    2.4551    0.0000 H       1  UNL1        0.0242
     57 H           6.8036    2.7090    0.0000 H       1  UNL1        0.0242
@<TRIPOS>BOND
     1    13     1    1
     2     1    51    1
     3    15     2    1
     4     2    52    1
     5     3    22    2
     6     4     8    1
     7     4    17    1
     8     4    24    1
     9     5     8    1
    10     5     9    1
    11     5    10    1
    12     5    13    1
    13     6     7    1
    14     6     9    1
    15     6    14    1
    16     6    15    1
    17     7     8    1
    18     7    11    1
    19     7    27    1
    20     8    28    1
    21     9    16    1
    22     9    29    1
    23    10    11    1
    24    10    12    1
    25    10    30    1
    26    11    31    1
    27    11    32    1
    28    12    17    1
    29    12    18    1
    30    12    23    1
    31    13    20    1
    32    13    33    1
    33    14    19    1
    34    14    34    1
    35    14    35    1
    36    15    21    1
    37    15    36    1
    38    16    22    1
    39    16    37    1
    40    16    38    1
    41    17    39    1
    42    17    40    1
    43    18    20    1
    44    18    41    1
    45    18    42    1
    46    19    21    1
    47    19    22    1
    48    19    43    1
    49    20    44    1
    50    20    45    1
    51    21    25    2
    52    23    46    1
    53    23    47    1
    54    23    48    1
    55    24    26    1
    56    24    49    1
    57    24    50    1
    58    25    53    1
    59    25    54    1
    60    26    55    1
    61    26    56    1
    62    26    57    1
