@<TRIPOS>MOLECULE
IMPHY006515
 42 42 0 0 0
SMALL
GASTEIGER

@<TRIPOS>ATOM
      1 O           6.8671   -0.5600    0.0000 O.3     1  UNL1       -0.3888
      2 C           5.1350    0.4400    0.0000 C.3     1  UNL1       -0.0089
      3 C           6.0010   -0.0600    0.0000 C.3     1  UNL1        0.0636
      4 C           4.2690   -0.0600    0.0000 C.3     1  UNL1       -0.0437
      5 C           5.1350    1.4400    0.0000 C.3     1  UNL1       -0.0291
      6 C           4.2690   -1.0600    0.0000 C.3     1  UNL1       -0.0317
      7 C           6.5010    0.8060    0.0000 C.3     1  UNL1       -0.0361
      8 C           5.5010   -0.9260    0.0000 C.3     1  UNL1       -0.0361
      9 C           4.2690    1.9400    0.0000 C.2     1  UNL1       -0.0847
     10 C           3.4030   -1.5600    0.0000 C.2     1  UNL1       -0.0765
     11 C           3.4030    1.4400    0.0000 C.2     1  UNL1       -0.0762
     12 C           3.4030    0.4400    0.0000 C.3     1  UNL1       -0.0286
     13 C           2.5369   -0.0600    0.0000 C.3     1  UNL1       -0.0308
     14 C           2.5369   -1.0600    0.0000 C.2     1  UNL1       -0.0847
     15 C           3.4030   -2.5600    0.0000 C.3     1  UNL1       -0.0438
     16 C           2.5369    1.9400    0.0000 C.3     1  UNL1       -0.0438
     17 H           5.1350   -0.4100    0.0000 H       1  UNL1        0.0331
     18 H           4.0569    0.5226    0.0000 H       1  UNL1        0.0272
     19 H           3.6584   -0.1677    0.0000 H       1  UNL1        0.0272
     20 H           5.7456    1.3323    0.0000 H       1  UNL1        0.0311
     21 H           5.3471    2.0226    0.0000 H       1  UNL1        0.0311
     22 H           4.4810   -1.6426    0.0000 H       1  UNL1        0.0310
     23 H           4.8796   -0.9523    0.0000 H       1  UNL1        0.0310
     24 H           7.0380    0.4960    0.0000 H       1  UNL1        0.0257
     25 H           6.8110    1.3430    0.0000 H       1  UNL1        0.0257
     26 H           5.9641    1.1160    0.0000 H       1  UNL1        0.0257
     27 H           4.9641   -0.6160    0.0000 H       1  UNL1        0.0257
     28 H           5.1910   -1.4630    0.0000 H       1  UNL1        0.0257
     29 H           6.0380   -1.2360    0.0000 H       1  UNL1        0.0257
     30 H           4.2690    2.5600    0.0000 H       1  UNL1        0.0572
     31 H           7.4040   -0.2500    0.0000 H       1  UNL1        0.2101
     32 H           3.6150   -0.1426    0.0000 H       1  UNL1        0.0313
     33 H           4.0135    0.5477    0.0000 H       1  UNL1        0.0313
     34 H           2.3249    0.5226    0.0000 H       1  UNL1        0.0310
     35 H           1.9264   -0.1677    0.0000 H       1  UNL1        0.0310
     36 H           2.0000   -1.3700    0.0000 H       1  UNL1        0.0572
     37 H           2.7830   -2.5600    0.0000 H       1  UNL1        0.0274
     38 H           3.4030   -3.1800    0.0000 H       1  UNL1        0.0274
     39 H           4.0230   -2.5600    0.0000 H       1  UNL1        0.0274
     40 H           2.8469    2.4769    0.0000 H       1  UNL1        0.0274
     41 H           2.0000    2.2500    0.0000 H       1  UNL1        0.0274
     42 H           2.2269    1.4031    0.0000 H       1  UNL1        0.0274
@<TRIPOS>BOND
     1     1     3    1
     2     1    31    1
     3     2     3    1
     4     2     4    1
     5     2     5    1
     6     2    17    1
     7     3     7    1
     8     3     8    1
     9     4     6    1
    10     4    18    1
    11     4    19    1
    12     5     9    1
    13     5    20    1
    14     5    21    1
    15     6    10    1
    16     6    22    1
    17     6    23    1
    18     7    24    1
    19     7    25    1
    20     7    26    1
    21     8    27    1
    22     8    28    1
    23     8    29    1
    24     9    11    2
    25     9    30    1
    26    10    14    2
    27    10    15    1
    28    11    12    1
    29    11    16    1
    30    12    13    1
    31    12    32    1
    32    12    33    1
    33    13    14    1
    34    13    34    1
    35    13    35    1
    36    14    36    1
    37    15    37    1
    38    15    38    1
    39    15    39    1
    40    16    40    1
    41    16    41    1
    42    16    42    1
