@<TRIPOS>MOLECULE
IMPHY009883
 34 35 0 0 0
SMALL
GASTEIGER

@<TRIPOS>ATOM
      1 O           4.2690   -2.3100    0.0000 O.3     1  UNL1       -0.4885
      2 O           6.0010   -1.3100    0.0000 O.3     1  UNL1       -0.5032
      3 O           2.5369   -1.3100    0.0000 O.3     1  UNL1       -0.5032
      4 O           6.8671   -0.8100    0.0000 O.3     1  UNL1       -0.5066
      5 O           8.5991    2.1900    0.0000 O.3     1  UNL1       -0.5066
      6 C           4.2690    0.6900    0.0000 C.ar    1  UNL1       -0.0179
      7 C           6.0010    1.6900    0.0000 C.ar    1  UNL1       -0.0181
      8 C           3.4030    0.1900    0.0000 C.ar    1  UNL1       -0.0091
      9 C           5.1350    0.1900    0.0000 C.ar    1  UNL1       -0.0091
     10 C           4.2690    1.6900    0.0000 C.2     1  UNL1       -0.0538
     11 C           4.2690   -1.3100    0.0000 C.ar    1  UNL1        0.2031
     12 C           5.1350   -0.8100    0.0000 C.ar    1  UNL1        0.1627
     13 C           3.4030   -0.8100    0.0000 C.ar    1  UNL1        0.1627
     14 C           5.1350    2.1900    0.0000 C.2     1  UNL1       -0.0538
     15 C           6.8671    2.1900    0.0000 C.ar    1  UNL1       -0.0128
     16 C           6.0010    0.6900    0.0000 C.ar    1  UNL1       -0.0128
     17 C           6.8671    0.1900    0.0000 C.ar    1  UNL1        0.1209
     18 C           7.7331    1.6900    0.0000 C.ar    1  UNL1        0.1209
     19 C           7.7331    0.6900    0.0000 C.ar    1  UNL1        0.0213
     20 C           3.4030   -2.8100    0.0000 C.3     1  UNL1        0.0791
     21 H           2.8660    0.5000    0.0000 H       1  UNL1        0.0661
     22 H           5.6720    0.5000    0.0000 H       1  UNL1        0.0661
     23 H           3.7320    2.0000    0.0000 H       1  UNL1        0.0624
     24 H           5.1350    2.8100    0.0000 H       1  UNL1        0.0624
     25 H           6.8671    2.8100    0.0000 H       1  UNL1        0.0660
     26 H           5.4641    0.3800    0.0000 H       1  UNL1        0.0660
     27 H           8.2700    0.3800    0.0000 H       1  UNL1        0.0691
     28 H           6.0010   -1.9300    0.0000 H       1  UNL1        0.2923
     29 H           2.0000   -1.0000    0.0000 H       1  UNL1        0.2923
     30 H           3.0930   -2.2731    0.0000 H       1  UNL1        0.0660
     31 H           2.8660   -3.1200    0.0000 H       1  UNL1        0.0660
     32 H           3.7130   -3.3469    0.0000 H       1  UNL1        0.0660
     33 H           7.4040   -1.1200    0.0000 H       1  UNL1        0.2921
     34 H           8.5991    2.8100    0.0000 H       1  UNL1        0.2921
@<TRIPOS>BOND
     1     1    11    1
     2     1    20    1
     3     2    12    1
     4     2    28    1
     5     3    13    1
     6     3    29    1
     7     4    17    1
     8     4    33    1
     9     5    18    1
    10     5    34    1
    11     6     8   ar
    12     6     9   ar
    13     6    10    1
    14     7    14    1
    15     7    15   ar
    16     7    16   ar
    17     8    13   ar
    18     8    21    1
    19     9    12   ar
    20     9    22    1
    21    10    14    2
    22    10    23    1
    23    11    12   ar
    24    11    13   ar
    25    14    24    1
    26    15    18   ar
    27    15    25    1
    28    16    17   ar
    29    16    26    1
    30    17    19   ar
    31    18    19   ar
    32    19    27    1
    33    20    30    1
    34    20    31    1
    35    20    32    1
