@<TRIPOS>MOLECULE
IMPHY008150
 22 22 0 0 0
SMALL
GASTEIGER

@<TRIPOS>ATOM
      1 C           2.8660    0.7500    0.0000 C.ar    1  UNL1       -0.0227
      2 C           2.8660   -1.2500    0.0000 C.ar    1  UNL1       -0.0504
      3 C           2.0000    0.2500    0.0000 C.ar    1  UNL1       -0.0541
      4 C           3.7320    0.2500    0.0000 C.ar    1  UNL1       -0.0541
      5 C           2.8660    1.7500    0.0000 C.2     1  UNL1       -0.0504
      6 C           2.0000   -0.7500    0.0000 C.ar    1  UNL1       -0.0583
      7 C           3.7320   -0.7500    0.0000 C.ar    1  UNL1       -0.0583
      8 C           2.8660   -2.2500    0.0000 C.3     1  UNL1       -0.0397
      9 C           3.7320    2.2500    0.0000 C.3     1  UNL1       -0.0397
     10 C           2.0000    2.2500    0.0000 C.2     1  UNL1       -0.0952
     11 H           1.4631    0.5600    0.0000 H       1  UNL1        0.0624
     12 H           4.2690    0.5600    0.0000 H       1  UNL1        0.0624
     13 H           1.4631   -1.0600    0.0000 H       1  UNL1        0.0620
     14 H           4.2690   -1.0600    0.0000 H       1  UNL1        0.0620
     15 H           2.2460   -2.2500    0.0000 H       1  UNL1        0.0278
     16 H           2.8660   -2.8700    0.0000 H       1  UNL1        0.0278
     17 H           3.4860   -2.2500    0.0000 H       1  UNL1        0.0278
     18 H           4.0420    1.7131    0.0000 H       1  UNL1        0.0278
     19 H           4.2690    2.5600    0.0000 H       1  UNL1        0.0278
     20 H           3.4220    2.7869    0.0000 H       1  UNL1        0.0278
     21 H           2.0000    2.8700    0.0000 H       1  UNL1        0.0538
     22 H           1.4631    1.9400    0.0000 H       1  UNL1        0.0538
@<TRIPOS>BOND
     1     1     3   ar
     2     1     4   ar
     3     1     5    1
     4     2     6   ar
     5     2     7   ar
     6     2     8    1
     7     3     6   ar
     8     3    11    1
     9     4     7   ar
    10     4    12    1
    11     5     9    1
    12     5    10    2
    13     6    13    1
    14     7    14    1
    15     8    15    1
    16     8    16    1
    17     8    17    1
    18     9    18    1
    19     9    19    1
    20     9    20    1
    21    10    21    1
    22    10    22    1
