@<TRIPOS>MOLECULE
IMPHY000449
 27 30 0 0 0
SMALL
GASTEIGER

@<TRIPOS>ATOM
      1 C           2.5962    1.4997    0.0000 C.ar    1  UNL1        0.0690
      2 C           3.4646    1.9976    0.0000 C.ar    1  UNL1        0.1449
      3 C           2.5962    0.5009    0.0000 C.ar    1  UNL1        0.1546
      4 C           1.7308    1.9976    0.0000 C.ar    1  UNL1        0.0127
      5 C           4.3300    1.4997    0.0000 C.ar    1  UNL1        0.0718
      6 O           3.4646    2.9993    0.0000 O.3     1  UNL1       -0.4705
      7 C           3.4646    0.0000    0.0000 C.ar    1  UNL1        0.0753
      8 O           1.7308    0.0000    0.0000 O.2     1  UNL1       -0.4208
      9 C           0.8654    1.4997    0.0000 C.ar    1  UNL1        0.0825
     10 C           4.3300    0.5009    0.0000 C.ar    1  UNL1        0.1514
     11 C           5.2814    1.8079    0.0000 C.ar    1  UNL1        0.0467
     12 C           4.3300    3.5002    0.0000 C.3     1  UNL1        0.2312
     13 C           0.8654    0.5009    0.0000 C.ar    1  UNL1        0.3459
     14 O           5.2814    0.1897    0.0000 O.2     1  UNL1       -0.4502
     15 C           5.8682    0.9988    0.0000 C.ar    1  UNL1        0.1797
     16 C           5.1954    2.9993    0.0000 C.2     1  UNL1        0.0123
     17 O           0.0000    0.0000    0.0000 O.2     1  UNL1       -0.2445
     18 C           6.0608    3.5002    0.0000 C.2     1  UNL1       -0.0407
     19 C           6.9263    2.9993    0.0000 C.3     1  UNL1        0.0701
     20 C           6.0608    4.4990    0.0000 C.3     1  UNL1        0.0263
     21 C           7.7946    3.5002    0.0000 C.3     1  UNL1        0.1951
     22 O           7.8984    4.4930    0.0000 O.3     1  UNL1       -0.4445
     23 C           8.7075    3.0912    0.0000 C.2     1  UNL1        0.0191
     24 C           8.8764    4.7035    0.0000 C.2     1  UNL1        0.3372
     25 C           9.3773    3.8351    0.0000 C.2     1  UNL1        0.0529
     26 O           9.2824    5.6163    0.0000 O.2     1  UNL1       -0.2453
     27 C          10.3731    3.7313    0.0000 C.3     1  UNL1        0.0376
@<TRIPOS>BOND
     1     1     2   ar
     2     1     3   ar
     3     1     4   ar
     4     2     5   ar
     5     2     6    1
     6     3     7   ar
     7     3     8   ar
     8     4     9   ar
     9     5    10   ar
    10     5    11   ar
    11     6    12    1
    12     7    10   ar
    13     8    13   ar
    14     9    13   ar
    15    10    14   ar
    16    11    15   ar
    17    12    16    1
    18    13    17    2
    19    14    15   ar
    20    16    18    2
    21    18    19    1
    22    18    20    1
    23    19    21    1
    24    21    22    1
    25    21    23    1
    26    22    24    1
    27    23    25    2
    28    24    25    1
    29    24    26    2
    30    25    27    1
