@<TRIPOS>MOLECULE
IMPHY008239
 81 85 0 0 0
SMALL
GASTEIGER

@<TRIPOS>ATOM
      1 O           2.5357   -1.8922    0.0000 O.3     1  UNL1       -0.3907
      2 O           4.3500   -3.6701    0.0000 O.3     1  UNL1       -0.4802
      3 O           2.8467   -2.8098    0.0000 O.2     1  UNL1       -0.2503
      4 C           7.0628   -0.3398    0.0000 C.3     1  UNL1       -0.0194
      5 C           6.1968    0.1601    0.0000 C.3     1  UNL1       -0.0257
      6 C           5.2868   -0.3467    0.0000 C.3     1  UNL1       -0.0244
      7 C           7.9288    0.1601    0.0000 C.3     1  UNL1       -0.0051
      8 C           5.2787   -1.3883    0.0000 C.3     1  UNL1       -0.0174
      9 C           7.0789   -1.3814    0.0000 C.3     1  UNL1       -0.0463
     10 C           7.9288    1.1602    0.0000 C.2     1  UNL1       -0.0634
     11 C           8.8228    1.6948    0.0000 C.3     1  UNL1       -0.0135
     12 C           6.1808   -1.9091    0.0000 C.3     1  UNL1       -0.0481
     13 C           9.7288    1.1810    0.0000 C.3     1  UNL1       -0.0255
     14 C           8.8228   -0.3745    0.0000 C.3     1  UNL1       -0.0429
     15 C           6.1968    1.1602    0.0000 C.3     1  UNL1       -0.0306
     16 C           4.3433   -1.9380    0.0000 C.3     1  UNL1        0.0938
     17 C           4.3599    0.2174    0.0000 C.3     1  UNL1       -0.0447
     18 C           9.7288    0.1393    0.0000 C.3     1  UNL1       -0.0463
     19 C           7.7056   -1.1059    0.0000 C.3     1  UNL1       -0.0585
     20 C           7.0628    1.6602    0.0000 C.2     1  UNL1       -0.0836
     21 C           5.2945    0.6533    0.0000 C.3     1  UNL1       -0.0590
     22 C           8.2709   -0.7795    0.0000 C.3     1  UNL1       -0.0553
     23 C           3.4037   -1.3955    0.0000 C.3     1  UNL1        0.0710
     24 C           8.7977    2.7795    0.0000 C.3     1  UNL1       -0.0408
     25 C           3.4120   -0.3106    0.0000 C.3     1  UNL1       -0.0253
     26 C          10.6726    1.7162    0.0000 C.3     1  UNL1       -0.0466
     27 C           9.7288    3.3364    0.0000 C.3     1  UNL1       -0.0343
     28 C          10.6726    2.8012    0.0000 C.3     1  UNL1       -0.0473
     29 C          10.5987    0.6877    0.0000 C.3     1  UNL1       -0.0590
     30 C           4.8466   -2.8021    0.0000 C.3     1  UNL1       -0.0467
     31 C           3.8467   -2.8060    0.0000 C.2     1  UNL1        0.3135
     32 C          10.2188    4.2082    0.0000 C.3     1  UNL1       -0.0598
     33 C           9.2188    4.1966    0.0000 C.3     1  UNL1       -0.0598
     34 H           6.9329    0.5851    0.0000 H       1  UNL1        0.0315
     35 H           5.2820   -2.2383    0.0000 H       1  UNL1        0.0317
     36 H           7.2969   -1.9618    0.0000 H       1  UNL1        0.0271
     37 H           7.6880   -1.2659    0.0000 H       1  UNL1        0.0271
     38 H           9.5522    2.1311    0.0000 H       1  UNL1        0.0351
     39 H           5.7835   -2.3851    0.0000 H       1  UNL1        0.0269
     40 H           6.5818   -2.3820    0.0000 H       1  UNL1        0.0269
     41 H           8.4182   -0.8443    0.0000 H       1  UNL1        0.0274
     42 H           9.2164   -0.8535    0.0000 H       1  UNL1        0.0274
     43 H           5.9847    1.7428    0.0000 H       1  UNL1        0.0310
     44 H           5.5862    1.0525    0.0000 H       1  UNL1        0.0310
     45 H           4.7681    0.6840    0.0000 H       1  UNL1        0.0271
     46 H           3.9700    0.6994    0.0000 H       1  UNL1        0.0271
     47 H           9.9379   -0.4444    0.0000 H       1  UNL1        0.0271
     48 H          10.3397    0.2454    0.0000 H       1  UNL1        0.0271
     49 H           7.2306   -1.5044    0.0000 H       1  UNL1        0.0235
     50 H           8.1041   -1.5808    0.0000 H       1  UNL1        0.0235
     51 H           8.1805   -0.7074    0.0000 H       1  UNL1        0.0235
     52 H           7.0628    2.2802    0.0000 H       1  UNL1        0.0572
     53 H           5.9145    0.6485    0.0000 H       1  UNL1        0.0235
     54 H           5.2993    1.2733    0.0000 H       1  UNL1        0.0235
     55 H           4.6745    0.6581    0.0000 H       1  UNL1        0.0235
     56 H           7.6884   -0.9916    0.0000 H       1  UNL1        0.0238
     57 H           8.4830   -1.3621    0.0000 H       1  UNL1        0.0238
     58 H           8.8535   -0.5674    0.0000 H       1  UNL1        0.0238
     59 H           3.4025   -2.0155    0.0000 H       1  UNL1        0.0604
     60 H           8.5752    3.3582    0.0000 H       1  UNL1        0.0276
     61 H           8.1894    2.6593    0.0000 H       1  UNL1        0.0276
     62 H           3.2075    0.2747    0.0000 H       1  UNL1        0.0291
     63 H           2.8004   -0.4119    0.0000 H       1  UNL1        0.0291
     64 H          10.8817    1.1325    0.0000 H       1  UNL1        0.0271
     65 H          11.2835    1.8223    0.0000 H       1  UNL1        0.0271
     66 H          11.2835    2.6951    0.0000 H       1  UNL1        0.0271
     67 H          10.8817    3.3849    0.0000 H       1  UNL1        0.0271
     68 H          10.2928    0.1483    0.0000 H       1  UNL1        0.0235
     69 H          11.1380    0.3818    0.0000 H       1  UNL1        0.0235
     70 H          10.9045    1.2270    0.0000 H       1  UNL1        0.0235
     71 H           4.3109   -3.1142    0.0000 H       1  UNL1        0.0241
     72 H           5.1587   -3.3378    0.0000 H       1  UNL1        0.0241
     73 H           5.3824   -2.4900    0.0000 H       1  UNL1        0.0241
     74 H          10.7593    3.9044    0.0000 H       1  UNL1        0.0235
     75 H          10.5226    4.7487    0.0000 H       1  UNL1        0.0235
     76 H           9.6783    4.5120    0.0000 H       1  UNL1        0.0235
     77 H           9.7522    4.5128    0.0000 H       1  UNL1        0.0235
     78 H           8.9027    4.7299    0.0000 H       1  UNL1        0.0235
     79 H           8.6855    3.8804    0.0000 H       1  UNL1        0.0235
     80 H           2.0000   -1.5801    0.0000 H       1  UNL1        0.2098
     81 H           4.0421   -4.2082    0.0000 H       1  UNL1        0.2951
@<TRIPOS>BOND
     1    23     1    1
     2     1    80    1
     3     2    31    1
     4     2    81    1
     5     3    31    2
     6     4     5    1
     7     4     7    1
     8     4     9    1
     9     4    19    1
    10     5     6    1
    11     5    15    1
    12     5    34    1
    13     6     8    1
    14     6    17    1
    15     6    21    1
    16     7    10    1
    17     7    14    1
    18     7    22    1
    19     8    12    1
    20     8    16    1
    21     8    35    1
    22     9    12    1
    23     9    36    1
    24     9    37    1
    25    10    11    1
    26    10    20    2
    27    11    13    1
    28    11    24    1
    29    11    38    1
    30    12    39    1
    31    12    40    1
    32    13    18    1
    33    13    26    1
    34    13    29    1
    35    14    18    1
    36    14    41    1
    37    14    42    1
    38    15    20    1
    39    15    43    1
    40    15    44    1
    41    16    23    1
    42    16    30    1
    43    16    31    1
    44    17    25    1
    45    17    45    1
    46    17    46    1
    47    18    47    1
    48    18    48    1
    49    19    49    1
    50    19    50    1
    51    19    51    1
    52    20    52    1
    53    21    53    1
    54    21    54    1
    55    21    55    1
    56    22    56    1
    57    22    57    1
    58    22    58    1
    59    23    25    1
    60    23    59    1
    61    24    27    1
    62    24    60    1
    63    24    61    1
    64    25    62    1
    65    25    63    1
    66    26    28    1
    67    26    64    1
    68    26    65    1
    69    27    28    1
    70    27    32    1
    71    27    33    1
    72    28    66    1
    73    28    67    1
    74    29    68    1
    75    29    69    1
    76    29    70    1
    77    30    71    1
    78    30    72    1
    79    30    73    1
    80    32    74    1
    81    32    75    1
    82    32    76    1
    83    33    77    1
    84    33    78    1
    85    33    79    1
