@<TRIPOS>MOLECULE
IMPHY013363
 57 58 0 0 0
SMALL
GASTEIGER

@<TRIPOS>ATOM
      1 O           2.5369   -0.2500    0.0000 O.3     1  UNL1       -0.5031
      2 O           2.5369    1.7500    0.0000 O.3     1  UNL1       -0.5028
      3 O           3.4030    3.2500    0.0000 O.2     1  UNL1       -0.2872
      4 O           6.8671    3.2500    0.0000 O.3     1  UNL1       -0.5062
      5 C           6.0010   -3.2500    0.0000 C.3     1  UNL1       -0.0286
      6 C           5.1350   -2.7500    0.0000 C.2     1  UNL1       -0.0759
      7 C           4.2690   -1.2500    0.0000 C.3     1  UNL1       -0.0057
      8 C           6.0010   -4.2500    0.0000 C.3     1  UNL1       -0.0308
      9 C           4.2690   -0.2500    0.0000 C.ar    1  UNL1        0.0015
     10 C           5.1350   -1.7500    0.0000 C.2     1  UNL1       -0.0806
     11 C           3.4030    0.2500    0.0000 C.ar    1  UNL1        0.1625
     12 C           4.2690   -3.2500    0.0000 C.3     1  UNL1       -0.0438
     13 C           5.1350    0.2500    0.0000 C.ar    1  UNL1       -0.0539
     14 C           6.8671   -4.7500    0.0000 C.2     1  UNL1       -0.0850
     15 C           4.2690    1.7500    0.0000 C.ar    1  UNL1        0.0667
     16 C           3.4030    1.2500    0.0000 C.ar    1  UNL1        0.1695
     17 C           5.1350    1.2500    0.0000 C.ar    1  UNL1       -0.0469
     18 C           6.8671   -5.7500    0.0000 C.2     1  UNL1       -0.0796
     19 C           4.2690    2.7500    0.0000 C.2     1  UNL1        0.1897
     20 C           7.7331   -6.2500    0.0000 C.3     1  UNL1       -0.0440
     21 C           6.0010   -6.2500    0.0000 C.3     1  UNL1       -0.0440
     22 C           5.1350    3.2500    0.0000 C.2     1  UNL1       -0.0136
     23 C           5.1350    4.2500    0.0000 C.2     1  UNL1       -0.0475
     24 C           6.0010    4.7500    0.0000 C.ar    1  UNL1        0.0165
     25 C           6.8671    4.2500    0.0000 C.ar    1  UNL1        0.1240
     26 C           6.0010    5.7500    0.0000 C.ar    1  UNL1       -0.0511
     27 C           7.7331    4.7500    0.0000 C.ar    1  UNL1       -0.0196
     28 C           6.8671    6.2500    0.0000 C.ar    1  UNL1       -0.0610
     29 C           7.7331    5.7500    0.0000 C.ar    1  UNL1       -0.0583
     30 H           6.6116   -3.3577    0.0000 H       1  UNL1        0.0313
     31 H           6.2131   -2.6674    0.0000 H       1  UNL1        0.0313
     32 H           3.6584   -1.1423    0.0000 H       1  UNL1        0.0357
     33 H           4.0569   -1.8326    0.0000 H       1  UNL1        0.0357
     34 H           5.3905   -4.1423    0.0000 H       1  UNL1        0.0310
     35 H           5.7890   -4.8326    0.0000 H       1  UNL1        0.0310
     36 H           5.6720   -1.4400    0.0000 H       1  UNL1        0.0575
     37 H           3.9590   -2.7131    0.0000 H       1  UNL1        0.0274
     38 H           3.7320   -3.5600    0.0000 H       1  UNL1        0.0274
     39 H           4.5790   -3.7869    0.0000 H       1  UNL1        0.0274
     40 H           5.6720   -0.0600    0.0000 H       1  UNL1        0.0622
     41 H           7.4040   -4.4400    0.0000 H       1  UNL1        0.0572
     42 H           5.6720    1.5600    0.0000 H       1  UNL1        0.0626
     43 H           7.4231   -6.7869    0.0000 H       1  UNL1        0.0274
     44 H           8.2700   -6.5600    0.0000 H       1  UNL1        0.0274
     45 H           8.0431   -5.7131    0.0000 H       1  UNL1        0.0274
     46 H           5.6910   -5.7131    0.0000 H       1  UNL1        0.0274
     47 H           5.4641   -6.5600    0.0000 H       1  UNL1        0.0274
     48 H           6.3110   -6.7869    0.0000 H       1  UNL1        0.0274
     49 H           2.5369   -0.8700    0.0000 H       1  UNL1        0.2923
     50 H           5.6720    2.9400    0.0000 H       1  UNL1        0.0656
     51 H           2.0000    1.4400    0.0000 H       1  UNL1        0.2923
     52 H           4.5981    4.5600    0.0000 H       1  UNL1        0.0626
     53 H           5.4641    6.0600    0.0000 H       1  UNL1        0.0625
     54 H           8.2700    4.4400    0.0000 H       1  UNL1        0.0654
     55 H           6.8671    6.8700    0.0000 H       1  UNL1        0.0618
     56 H           8.2700    6.0600    0.0000 H       1  UNL1        0.0619
     57 H           7.4040    2.9400    0.0000 H       1  UNL1        0.2922
@<TRIPOS>BOND
     1     1    11    1
     2     1    49    1
     3     2    16    1
     4     2    51    1
     5     3    19    2
     6     4    25    1
     7     4    57    1
     8     5     6    1
     9     5     8    1
    10     5    30    1
    11     5    31    1
    12     6    10    2
    13     6    12    1
    14     7     9    1
    15     7    10    1
    16     7    32    1
    17     7    33    1
    18     8    14    1
    19     8    34    1
    20     8    35    1
    21     9    11   ar
    22     9    13   ar
    23    10    36    1
    24    11    16   ar
    25    12    37    1
    26    12    38    1
    27    12    39    1
    28    13    17   ar
    29    13    40    1
    30    14    18    2
    31    14    41    1
    32    15    16   ar
    33    15    17   ar
    34    15    19    1
    35    17    42    1
    36    18    20    1
    37    18    21    1
    38    19    22    1
    39    20    43    1
    40    20    44    1
    41    20    45    1
    42    21    46    1
    43    21    47    1
    44    21    48    1
    45    22    23    2
    46    22    50    1
    47    23    24    1
    48    23    52    1
    49    24    25   ar
    50    24    26   ar
    51    25    27   ar
    52    26    28   ar
    53    26    53    1
    54    27    29   ar
    55    27    54    1
    56    28    29   ar
    57    28    55    1
    58    29    56    1
