@<TRIPOS>MOLECULE
IMPHY000934
 88 93 0 0 0
SMALL
GASTEIGER

@<TRIPOS>ATOM
      1 O          11.9254    3.1668    0.0000 O.3     1  UNL1       -0.3591
      2 O          11.5835    1.3780    0.0000 O.3     1  UNL1       -0.3184
      3 O          10.6973    0.8935    0.0000 O.3     1  UNL1       -0.3194
      4 O          10.8033   -0.6830    0.0000 O.3     1  UNL1       -0.3128
      5 O          14.7607    3.2106    0.0000 O.3     1  UNL1       -0.3773
      6 O          14.3485    3.9184    0.0000 O.3     1  UNL1       -0.3854
      7 O          13.1728    4.7302    0.0000 O.3     1  UNL1       -0.3920
      8 O          16.0428    3.1798    0.0000 O.2     1  UNL1       -0.2892
      9 C          12.5137    1.2607    0.0000 C.3     1  UNL1        0.0478
     10 C          13.4147    0.8268    0.0000 C.3     1  UNL1        0.0948
     11 C          12.2912    2.2356    0.0000 C.3     1  UNL1        0.1013
     12 C          12.9147    3.0175    0.0000 C.3     1  UNL1        0.1479
     13 C          11.6441    0.6873    0.0000 C.3     1  UNL1        0.1050
     14 C          14.3156    1.2607    0.0000 C.3     1  UNL1        0.0464
     15 C          13.5085   -0.2106    0.0000 C.3     1  UNL1       -0.0104
     16 C          11.7139   -0.3520    0.0000 C.3     1  UNL1        0.1224
     17 C          14.5381    2.2356    0.0000 C.3     1  UNL1        0.1650
     18 C          13.9147    3.0175    0.0000 C.3     1  UNL1        0.1252
     19 C          12.6524   -0.8039    0.0000 C.3     1  UNL1       -0.0120
     20 C          10.1906    0.0676    0.0000 C.3     1  UNL1        0.2872
     21 C          13.5381    3.7993    0.0000 C.3     1  UNL1        0.0783
     22 C          15.1703    0.7531    0.0000 C.2     1  UNL1       -0.0687
     23 C          14.4144   -0.6340    0.0000 C.3     1  UNL1       -0.0597
     24 C          15.5285    2.3222    0.0000 C.2     1  UNL1        0.1933
     25 C          11.6639   -1.3507    0.0000 C.2     1  UNL1       -0.0457
     26 C           9.1928    0.0006    0.0000 C.3     1  UNL1        0.0294
     27 C          15.9184    1.4078    0.0000 C.2     1  UNL1       -0.0085
     28 C           8.7520   -0.8970    0.0000 C.3     1  UNL1       -0.0457
     29 C          10.7739   -1.8068    0.0000 C.3     1  UNL1       -0.0413
     30 C          12.5038   -1.8935    0.0000 C.2     1  UNL1       -0.0969
     31 C          16.8933    1.1852    0.0000 C.3     1  UNL1       -0.0366
     32 C           7.7543   -0.9640    0.0000 C.3     1  UNL1       -0.0528
     33 C           7.3134   -1.8616    0.0000 C.3     1  UNL1       -0.0531
     34 C           6.3157   -1.9287    0.0000 C.3     1  UNL1       -0.0531
     35 C           5.8749   -2.8263    0.0000 C.3     1  UNL1       -0.0531
     36 C           4.8771   -2.8933    0.0000 C.3     1  UNL1       -0.0531
     37 C           4.4363   -3.7909    0.0000 C.3     1  UNL1       -0.0531
     38 C           3.4386   -3.8580    0.0000 C.3     1  UNL1       -0.0533
     39 C           2.9978   -4.7556    0.0000 C.3     1  UNL1       -0.0559
     40 C           2.0000   -4.8226    0.0000 C.3     1  UNL1       -0.0653
     41 H          11.9889    1.9294    0.0000 H       1  UNL1        0.0381
     42 H          11.4790    1.9850    0.0000 H       1  UNL1        0.0631
     43 H          10.9578    1.1888    0.0000 H       1  UNL1        0.0635
     44 H          14.2786    0.4115    0.0000 H       1  UNL1        0.0405
     45 H          14.0160    0.1456    0.0000 H       1  UNL1        0.0327
     46 H          14.5308    3.0869    0.0000 H       1  UNL1        0.0657
     47 H          12.2918   -1.3083    0.0000 H       1  UNL1        0.0301
     48 H          13.0876   -1.2456    0.0000 H       1  UNL1        0.0301
     49 H          13.9484    3.3344    0.0000 H       1  UNL1        0.0588
     50 H          14.0672    4.1226    0.0000 H       1  UNL1        0.0588
     51 H          15.2270    0.1357    0.0000 H       1  UNL1        0.0580
     52 H          14.1519   -1.1957    0.0000 H       1  UNL1        0.0233
     53 H          14.9761   -0.8965    0.0000 H       1  UNL1        0.0233
     54 H          14.6770   -0.0723    0.0000 H       1  UNL1        0.0233
     55 H           9.2593    0.6170    0.0000 H       1  UNL1        0.0343
     56 H           8.5973    0.1731    0.0000 H       1  UNL1        0.0343
     57 H          15.3531    3.3933    0.0000 H       1  UNL1        0.2109
     58 H          13.9993    4.4307    0.0000 H       1  UNL1        0.2100
     59 H           8.6855   -1.5134    0.0000 H       1  UNL1        0.0268
     60 H           9.3475   -1.0695    0.0000 H       1  UNL1        0.0268
     61 H          10.4912   -1.2550    0.0000 H       1  UNL1        0.0275
     62 H          10.2221   -2.0895    0.0000 H       1  UNL1        0.0275
     63 H          11.0567   -2.3586    0.0000 H       1  UNL1        0.0275
     64 H          12.5597    4.8226    0.0000 H       1  UNL1        0.2095
     65 H          12.4728   -2.5127    0.0000 H       1  UNL1        0.0535
     66 H          13.0556   -1.6107    0.0000 H       1  UNL1        0.0535
     67 H          16.7553    0.5808    0.0000 H       1  UNL1        0.0279
     68 H          17.4977    1.0473    0.0000 H       1  UNL1        0.0279
     69 H          17.0313    1.7897    0.0000 H       1  UNL1        0.0279
     70 H           7.8208   -0.3476    0.0000 H       1  UNL1        0.0265
     71 H           7.1588   -0.7915    0.0000 H       1  UNL1        0.0265
     72 H           7.2470   -2.4781    0.0000 H       1  UNL1        0.0265
     73 H           7.9090   -2.0342    0.0000 H       1  UNL1        0.0265
     74 H           6.3822   -1.3123    0.0000 H       1  UNL1        0.0265
     75 H           5.7202   -1.7562    0.0000 H       1  UNL1        0.0265
     76 H           5.8084   -3.4427    0.0000 H       1  UNL1        0.0265
     77 H           6.4704   -2.9988    0.0000 H       1  UNL1        0.0265
     78 H           4.9436   -2.2769    0.0000 H       1  UNL1        0.0265
     79 H           4.2816   -2.7208    0.0000 H       1  UNL1        0.0265
     80 H           4.3698   -4.4073    0.0000 H       1  UNL1        0.0265
     81 H           5.0318   -3.9634    0.0000 H       1  UNL1        0.0265
     82 H           3.5050   -3.2415    0.0000 H       1  UNL1        0.0265
     83 H           2.8430   -3.6854    0.0000 H       1  UNL1        0.0265
     84 H           2.9313   -5.3720    0.0000 H       1  UNL1        0.0263
     85 H           3.5933   -4.9281    0.0000 H       1  UNL1        0.0263
     86 H           1.9584   -4.2040    0.0000 H       1  UNL1        0.0230
     87 H           1.3814   -4.8642    0.0000 H       1  UNL1        0.0230
     88 H           2.0416   -5.4412    0.0000 H       1  UNL1        0.0230
@<TRIPOS>BOND
     1     1    11    1
     2     1    12    1
     3    10     2    1
     4     2    20    1
     5     3    13    1
     6     3    20    1
     7     4    16    1
     8     4    20    1
     9    17     5    1
    10     5    57    1
    11    18     6    1
    12     6    58    1
    13     7    21    1
    14     7    64    1
    15     8    24    2
    16     9    10    1
    17     9    11    1
    18     9    13    1
    19     9    41    1
    20    10    14    1
    21    10    15    1
    22    11    12    1
    23    11    42    1
    24    12    18    1
    25    12    21    1
    26    13    16    1
    27    13    43    1
    28    14    17    1
    29    14    22    1
    30    14    44    1
    31    15    19    1
    32    15    23    1
    33    15    45    1
    34    16    19    1
    35    16    25    1
    36    17    18    1
    37    17    24    1
    38    18    46    1
    39    19    47    1
    40    19    48    1
    41    20    26    1
    42    21    49    1
    43    21    50    1
    44    22    27    2
    45    22    51    1
    46    23    52    1
    47    23    53    1
    48    23    54    1
    49    24    27    1
    50    25    29    1
    51    25    30    2
    52    26    28    1
    53    26    55    1
    54    26    56    1
    55    27    31    1
    56    28    32    1
    57    28    59    1
    58    28    60    1
    59    29    61    1
    60    29    62    1
    61    29    63    1
    62    30    65    1
    63    30    66    1
    64    31    67    1
    65    31    68    1
    66    31    69    1
    67    32    33    1
    68    32    70    1
    69    32    71    1
    70    33    34    1
    71    33    72    1
    72    33    73    1
    73    34    35    1
    74    34    74    1
    75    34    75    1
    76    35    36    1
    77    35    76    1
    78    35    77    1
    79    36    37    1
    80    36    78    1
    81    36    79    1
    82    37    38    1
    83    37    80    1
    84    37    81    1
    85    38    39    1
    86    38    82    1
    87    38    83    1
    88    39    40    1
    89    39    84    1
    90    39    85    1
    91    40    86    1
    92    40    87    1
    93    40    88    1
