@<TRIPOS>MOLECULE
IMPHY007949
 28 30 0 0 0
SMALL
GASTEIGER

@<TRIPOS>ATOM
      1 O           6.3306    0.1830    0.0000 O.3     1  UNL1       -0.3650
      2 O           3.3660   -1.6830    0.0000 O.3     1  UNL1       -0.3683
      3 C           5.4641    0.6830    0.0000 C.3     1  UNL1        0.0932
      4 C           5.4641   -0.3170    0.0000 C.3     1  UNL1        0.0885
      5 C           3.7320   -0.3170    0.0000 C.3     1  UNL1       -0.0074
      6 C           4.5981   -0.8170    0.0000 C.3     1  UNL1       -0.0183
      7 C           2.8660   -0.8170    0.0000 C.3     1  UNL1        0.0929
      8 C           4.5981    1.1830    0.0000 C.3     1  UNL1       -0.0212
      9 C           3.7320    0.6830    0.0000 C.3     1  UNL1       -0.0448
     10 C           2.3660   -1.6830    0.0000 C.3     1  UNL1        0.0775
     11 C           5.4641    1.6830    0.0000 C.3     1  UNL1       -0.0334
     12 C           2.0000   -0.3170    0.0000 C.3     1  UNL1       -0.0334
     13 H           5.8890   -1.0532    0.0000 H       1  UNL1        0.0625
     14 H           3.7320   -1.1670    0.0000 H       1  UNL1        0.0330
     15 H           4.1996   -1.2919    0.0000 H       1  UNL1        0.0295
     16 H           4.9966   -1.2919    0.0000 H       1  UNL1        0.0295
     17 H           4.9966    1.6580    0.0000 H       1  UNL1        0.0294
     18 H           4.1996    1.6580    0.0000 H       1  UNL1        0.0294
     19 H           3.5200    1.2656    0.0000 H       1  UNL1        0.0270
     20 H           3.1215    0.5754    0.0000 H       1  UNL1        0.0270
     21 H           1.7834   -1.4710    0.0000 H       1  UNL1        0.0589
     22 H           2.2584   -2.2936    0.0000 H       1  UNL1        0.0589
     23 H           6.0841    1.6830    0.0000 H       1  UNL1        0.0258
     24 H           5.4641    2.3030    0.0000 H       1  UNL1        0.0258
     25 H           4.8441    1.6830    0.0000 H       1  UNL1        0.0258
     26 H           2.3100    0.2199    0.0000 H       1  UNL1        0.0258
     27 H           1.4631   -0.0070    0.0000 H       1  UNL1        0.0258
     28 H           1.6900   -0.8539    0.0000 H       1  UNL1        0.0258
@<TRIPOS>BOND
     1     1     3    1
     2     1     4    1
     3     2     7    1
     4     2    10    1
     5     3     4    1
     6     3     8    1
     7     3    11    1
     8     4     6    1
     9     4    13    1
    10     5     6    1
    11     5     7    1
    12     5     9    1
    13     5    14    1
    14     6    15    1
    15     6    16    1
    16     7    10    1
    17     7    12    1
    18     8     9    1
    19     8    17    1
    20     8    18    1
    21     9    19    1
    22     9    20    1
    23    10    21    1
    24    10    22    1
    25    11    23    1
    26    11    24    1
    27    11    25    1
    28    12    26    1
    29    12    27    1
    30    12    28    1
