@<TRIPOS>MOLECULE
IMPHY015524
 35 34 0 0 0
SMALL
GASTEIGER

@<TRIPOS>ATOM
      1 O           8.0622   -0.2500    0.0000 O.3     1  UNL1       -0.4621
      2 O           5.4641    0.2500    0.0000 O.3     1  UNL1       -0.4501
      3 O           7.1962    1.2500    0.0000 O.2     1  UNL1       -0.2467
      4 O           4.5981   -1.2500    0.0000 O.2     1  UNL1       -0.2508
      5 C           9.7942   -0.2500    0.0000 C.3     1  UNL1       -0.0188
      6 C          10.6603    0.2500    0.0000 C.3     1  UNL1       -0.0528
      7 C           8.9282    0.2500    0.0000 C.3     1  UNL1        0.0926
      8 C           6.3301   -0.2500    0.0000 C.3     1  UNL1        0.1961
      9 C           3.7320    0.2500    0.0000 C.3     1  UNL1        0.0447
     10 C           2.8660   -0.2500    0.0000 C.3     1  UNL1       -0.0458
     11 C           7.1962    0.2500    0.0000 C.2     1  UNL1        0.3481
     12 C          11.5263   -0.2500    0.0000 C.3     1  UNL1       -0.0652
     13 C           6.3301   -1.2500    0.0000 C.3     1  UNL1       -0.0171
     14 C           4.5981   -0.2500    0.0000 C.2     1  UNL1        0.3078
     15 C           2.0000    0.2500    0.0000 C.3     1  UNL1       -0.0648
     16 H           9.3957   -0.7249    0.0000 H       1  UNL1        0.0298
     17 H          10.1928   -0.7249    0.0000 H       1  UNL1        0.0298
     18 H          11.0588    0.7249    0.0000 H       1  UNL1        0.0264
     19 H          10.2617    0.7249    0.0000 H       1  UNL1        0.0264
     20 H           9.3267    0.7249    0.0000 H       1  UNL1        0.0697
     21 H           8.5297    0.7249    0.0000 H       1  UNL1        0.0697
     22 H           5.7932   -0.5600    0.0000 H       1  UNL1        0.0850
     23 H           4.1306    0.7249    0.0000 H       1  UNL1        0.0377
     24 H           3.3335    0.7249    0.0000 H       1  UNL1        0.0377
     25 H           2.4675   -0.7249    0.0000 H       1  UNL1        0.0268
     26 H           3.2646   -0.7249    0.0000 H       1  UNL1        0.0268
     27 H          11.2163   -0.7869    0.0000 H       1  UNL1        0.0230
     28 H          12.0632   -0.5600    0.0000 H       1  UNL1        0.0230
     29 H          11.8363    0.2869    0.0000 H       1  UNL1        0.0230
     30 H           5.7101   -1.2500    0.0000 H       1  UNL1        0.0271
     31 H           6.3301   -1.8700    0.0000 H       1  UNL1        0.0271
     32 H           6.9501   -1.2500    0.0000 H       1  UNL1        0.0271
     33 H           2.3100    0.7869    0.0000 H       1  UNL1        0.0230
     34 H           1.4631    0.5600    0.0000 H       1  UNL1        0.0230
     35 H           1.6900   -0.2869    0.0000 H       1  UNL1        0.0230
@<TRIPOS>BOND
     1     1     7    1
     2     1    11    1
     3     2     8    1
     4     2    14    1
     5     3    11    2
     6     4    14    2
     7     5     6    1
     8     5     7    1
     9     5    16    1
    10     5    17    1
    11     6    12    1
    12     6    18    1
    13     6    19    1
    14     7    20    1
    15     7    21    1
    16     8    11    1
    17     8    13    1
    18     8    22    1
    19     9    10    1
    20     9    14    1
    21     9    23    1
    22     9    24    1
    23    10    15    1
    24    10    25    1
    25    10    26    1
    26    12    27    1
    27    12    28    1
    28    12    29    1
    29    13    30    1
    30    13    31    1
    31    13    32    1
    32    15    33    1
    33    15    34    1
    34    15    35    1
