@<TRIPOS>MOLECULE
IMPHY017947
 16 16 0 0 0
SMALL
GASTEIGER

@<TRIPOS>ATOM
      1 O           5.4641    1.7500    0.0000 O.2     1  UNL1       -0.2961
      2 C           2.8660   -0.7500    0.0000 C.3     1  UNL1        0.0047
      3 C           2.8660    0.2500    0.0000 C.3     1  UNL1        0.0008
      4 C           3.7321   -1.2500    0.0000 C.3     1  UNL1        0.0047
      5 C           2.0000   -1.2500    0.0000 C.3     1  UNL1        0.0254
      6 C           3.7321    0.7500    0.0000 C.3     1  UNL1        0.0078
      7 C           3.7321   -2.2500    0.0000 C.3     1  UNL1        0.0217
      8 C           2.0000    0.7500    0.0000 C.3     1  UNL1        0.0000
      9 C           2.8660   -2.7500    0.0000 C.2     1  UNL1       -0.0482
     10 C           2.0000   -2.2500    0.0000 C.2     1  UNL1       -0.0346
     11 C           3.7321    1.7500    0.0000 C.3     1  UNL1        0.0645
     12 C           4.5981    2.2500    0.0000 C.2     1  UNL1        0.1502
     13 C           2.8660   -3.7500    0.0000 C.3     1  UNL1        0.0260
     14 C           4.5981    3.2500    0.0000 C.3     1  UNL1        0.0576
     15 C           3.7321    3.7500    0.0000 C.3     1  UNL1        0.0078
     16 C           5.4641    3.7500    0.0000 C.3     1  UNL1        0.0078
@<TRIPOS>BOND
     1     1    12    2
     2     2     3    1
     3     2     4    1
     4     2     5    1
     5     3     6    1
     6     3     8    1
     7     4     7    1
     8     5    10    1
     9     6    11    1
    10     7     9    1
    11     9    10    2
    12     9    13    1
    13    11    12    1
    14    12    14    1
    15    14    15    1
    16    14    16    1
