@<TRIPOS>MOLECULE
IMPHY015570
 29 29 0 0 0
SMALL
GASTEIGER

@<TRIPOS>ATOM
      1 O           3.0000   -2.3450    0.0000 O.3     1  UNL1       -0.3878
      2 C           3.0000    0.6550    0.0000 C.3     1  UNL1       -0.0178
      3 C           3.0000    1.6550    0.0000 C.3     1  UNL1       -0.0315
      4 C           3.8660    0.1550    0.0000 C.3     1  UNL1       -0.0437
      5 C           3.8660   -0.8450    0.0000 C.3     1  UNL1       -0.0227
      6 C           2.1340    0.1550    0.0000 C.2     1  UNL1       -0.0819
      7 C           3.0000   -1.3450    0.0000 C.3     1  UNL1        0.0734
      8 C           3.0000    2.6550    0.0000 C.3     1  UNL1       -0.0595
      9 C           4.0000    1.6550    0.0000 C.3     1  UNL1       -0.0595
     10 C           2.0000    1.6550    0.0000 C.3     1  UNL1       -0.0595
     11 C           2.1340   -0.8450    0.0000 C.2     1  UNL1       -0.0595
     12 H           3.5369    0.9650    0.0000 H       1  UNL1        0.0348
     13 H           4.4766    0.0473    0.0000 H       1  UNL1        0.0272
     14 H           4.0781    0.7376    0.0000 H       1  UNL1        0.0272
     15 H           4.0781   -1.4276    0.0000 H       1  UNL1        0.0293
     16 H           4.4766   -0.7373    0.0000 H       1  UNL1        0.0293
     17 H           1.5970    0.4650    0.0000 H       1  UNL1        0.0573
     18 H           3.5369   -1.6550    0.0000 H       1  UNL1        0.0637
     19 H           3.6200    2.6550    0.0000 H       1  UNL1        0.0235
     20 H           3.0000    3.2750    0.0000 H       1  UNL1        0.0235
     21 H           2.3800    2.6550    0.0000 H       1  UNL1        0.0235
     22 H           4.0000    1.0350    0.0000 H       1  UNL1        0.0235
     23 H           4.6200    1.6550    0.0000 H       1  UNL1        0.0235
     24 H           4.0000    2.2750    0.0000 H       1  UNL1        0.0235
     25 H           2.0000    2.2750    0.0000 H       1  UNL1        0.0235
     26 H           1.3800    1.6550    0.0000 H       1  UNL1        0.0235
     27 H           2.0000    1.0350    0.0000 H       1  UNL1        0.0235
     28 H           1.5970   -1.1550    0.0000 H       1  UNL1        0.0594
     29 H           2.4631   -2.6550    0.0000 H       1  UNL1        0.2102
@<TRIPOS>BOND
     1     1     7    1
     2     1    29    1
     3     2     3    1
     4     2     4    1
     5     2     6    1
     6     2    12    1
     7     3     8    1
     8     3     9    1
     9     3    10    1
    10     4     5    1
    11     4    13    1
    12     4    14    1
    13     5     7    1
    14     5    15    1
    15     5    16    1
    16     6    11    2
    17     6    17    1
    18     7    11    1
    19     7    18    1
    20     8    19    1
    21     8    20    1
    22     8    21    1
    23     9    22    1
    24     9    23    1
    25     9    24    1
    26    10    25    1
    27    10    26    1
    28    10    27    1
    29    11    28    1
