@<TRIPOS>MOLECULE
IMPHY006161
 43 46 0 0 0
SMALL
GASTEIGER

@<TRIPOS>ATOM
      1 O          10.4366    0.8177    0.0000 O.3     1  UNL1       -0.4857
      2 O           6.9006    0.8455    0.0000 O.2     1  UNL1       -0.4616
      3 O           8.6605   -2.1892    0.0000 O.3     1  UNL1       -0.5058
      4 O           6.9121   -2.2238    0.0000 O.2     1  UNL1       -0.2863
      5 O           2.5381   -2.7234    0.0000 O.3     1  UNL1       -0.5068
      6 C          10.4446    1.8592    0.0000 C.3     1  UNL1        0.1054
      7 C           9.5425    2.3801    0.0000 C.3     1  UNL1       -0.0092
      8 C           8.6445    1.8523    0.0000 C.3     1  UNL1       -0.0171
      9 C           8.6605    0.8108    0.0000 C.ar    1  UNL1        0.0375
     10 C           9.5266    0.3108    0.0000 C.ar    1  UNL1        0.1314
     11 C          10.9479    2.7234    0.0000 C.3     1  UNL1       -0.0252
     12 C          11.4446    1.8554    0.0000 C.3     1  UNL1       -0.0252
     13 C           7.7945    0.3108    0.0000 C.ar    1  UNL1        0.1486
     14 C           7.7945   -0.6892    0.0000 C.ar    1  UNL1        0.1063
     15 C           9.5266   -0.6892    0.0000 C.ar    1  UNL1        0.0228
     16 C           8.6605   -1.1892    0.0000 C.ar    1  UNL1        0.1347
     17 C           6.9006   -1.2239    0.0000 C.ar    1  UNL1        0.2037
     18 C           5.9945   -0.7100    0.0000 C.ar    1  UNL1        0.0644
     19 C           5.9945    0.3316    0.0000 C.ar    1  UNL1        0.1039
     20 C           5.1304   -1.2133    0.0000 C.ar    1  UNL1       -0.0110
     21 C           4.2625   -0.7167    0.0000 C.ar    1  UNL1       -0.0504
     22 C           5.1343   -2.2133    0.0000 C.ar    1  UNL1       -0.0504
     23 C           3.3984   -1.2200    0.0000 C.ar    1  UNL1       -0.0196
     24 C           4.2702   -2.7167    0.0000 C.ar    1  UNL1       -0.0196
     25 C           3.4022   -2.2200    0.0000 C.ar    1  UNL1        0.1169
     26 H           9.9398    2.8560    0.0000 H       1  UNL1        0.0307
     27 H           9.1415    2.8530    0.0000 H       1  UNL1        0.0307
     28 H           8.4264    2.4327    0.0000 H       1  UNL1        0.0317
     29 H           8.0353    1.7368    0.0000 H       1  UNL1        0.0317
     30 H          11.4422    1.2354    0.0000 H       1  UNL1        0.0268
     31 H          12.0646    1.8530    0.0000 H       1  UNL1        0.0268
     32 H          11.4470    2.4754    0.0000 H       1  UNL1        0.0268
     33 H          11.4837    2.4113    0.0000 H       1  UNL1        0.0268
     34 H          11.2600    3.2591    0.0000 H       1  UNL1        0.0268
     35 H          10.4122    3.0354    0.0000 H       1  UNL1        0.0268
     36 H          10.0635   -0.9992    0.0000 H       1  UNL1        0.0691
     37 H           5.4588    0.6437    0.0000 H       1  UNL1        0.1037
     38 H           9.1975   -2.4992    0.0000 H       1  UNL1        0.2922
     39 H           4.2601   -0.0967    0.0000 H       1  UNL1        0.0625
     40 H           5.6724   -2.5213    0.0000 H       1  UNL1        0.0625
     41 H           2.8602   -0.9121    0.0000 H       1  UNL1        0.0654
     42 H           4.2726   -3.3367    0.0000 H       1  UNL1        0.0654
     43 H           2.0000   -2.4154    0.0000 H       1  UNL1        0.2921
@<TRIPOS>BOND
     1     1     6    1
     2     1    10    1
     3     2    13   ar
     4     2    19   ar
     5     3    16    1
     6     3    38    1
     7     4    17    2
     8     5    25    1
     9     5    43    1
    10     6     7    1
    11     6    11    1
    12     6    12    1
    13     7     8    1
    14     7    26    1
    15     7    27    1
    16     8     9    1
    17     8    28    1
    18     8    29    1
    19     9    10   ar
    20     9    13   ar
    21    10    15   ar
    22    11    33    1
    23    11    34    1
    24    11    35    1
    25    12    30    1
    26    12    31    1
    27    12    32    1
    28    13    14   ar
    29    14    16   ar
    30    14    17   ar
    31    15    16   ar
    32    15    36    1
    33    17    18   ar
    34    18    19   ar
    35    18    20    1
    36    19    37    1
    37    20    21   ar
    38    20    22   ar
    39    21    23   ar
    40    21    39    1
    41    22    24   ar
    42    22    40    1
    43    23    25   ar
    44    23    41    1
    45    24    25   ar
    46    24    42    1
