@<TRIPOS>MOLECULE
IMPHY009074
 56 59 0 0 0
SMALL
GASTEIGER

@<TRIPOS>ATOM
      1 O           3.7320   -1.1550    0.0000 O.3     1  UNL1       -0.4260
      2 O           5.4641    2.8450    0.0000 O.3     1  UNL1       -0.5033
      3 O           3.7320    1.8450    0.0000 O.3     1  UNL1       -0.4915
      4 O           2.8660   -2.6550    0.0000 O.2     1  UNL1       -0.2507
      5 N           8.9282   -1.1550    0.0000 N.3     1  UNL1       -0.2924
      6 C           8.9282   -0.1550    0.0000 C.3     1  UNL1        0.0235
      7 C           9.8744    0.1497    0.0000 C.3     1  UNL1       -0.0332
      8 C           8.0622    0.3450    0.0000 C.3     1  UNL1       -0.0085
      9 C           9.8744   -1.4597    0.0000 C.3     1  UNL1       -0.0002
     10 C          10.4580   -0.6550    0.0000 C.3     1  UNL1       -0.0385
     11 C           8.0622   -1.6550    0.0000 C.3     1  UNL1        0.0254
     12 C           8.9282    0.8450    0.0000 C.3     1  UNL1       -0.0463
     13 C           7.1962   -0.1550    0.0000 C.2     1  UNL1       -0.0334
     14 C           7.1962   -1.1550    0.0000 C.2     1  UNL1       -0.0223
     15 C           6.3301    0.3450    0.0000 C.ar    1  UNL1       -0.0178
     16 C           6.3301   -1.6550    0.0000 C.ar    1  UNL1       -0.0169
     17 C           6.3301    1.3450    0.0000 C.ar    1  UNL1       -0.0091
     18 C           5.4641   -0.1550    0.0000 C.ar    1  UNL1       -0.0506
     19 C           5.4641   -1.1550    0.0000 C.ar    1  UNL1       -0.0118
     20 C           6.3301   -2.6550    0.0000 C.ar    1  UNL1       -0.0541
     21 C           5.4641    1.8450    0.0000 C.ar    1  UNL1        0.1590
     22 C           4.5981    0.3450    0.0000 C.ar    1  UNL1       -0.0157
     23 C           4.5981   -1.6550    0.0000 C.ar    1  UNL1        0.1322
     24 C           5.4641   -3.1550    0.0000 C.ar    1  UNL1       -0.0577
     25 C           4.5981    1.3450    0.0000 C.ar    1  UNL1        0.1613
     26 C           4.5981   -2.6550    0.0000 C.ar    1  UNL1       -0.0192
     27 C           2.8660   -1.6550    0.0000 C.2     1  UNL1        0.3092
     28 C           2.8660    1.3450    0.0000 C.3     1  UNL1        0.0790
     29 C           2.0000   -1.1550    0.0000 C.3     1  UNL1        0.0336
     30 H          10.4118    0.4590    0.0000 H       1  UNL1        0.0283
     31 H           9.6234    0.7166    0.0000 H       1  UNL1        0.0283
     32 H           8.4607    0.8199    0.0000 H       1  UNL1        0.0331
     33 H           7.6636    0.8199    0.0000 H       1  UNL1        0.0331
     34 H           9.6234   -2.0266    0.0000 H       1  UNL1        0.0427
     35 H          10.4118   -1.7690    0.0000 H       1  UNL1        0.0427
     36 H          10.9189   -1.0697    0.0000 H       1  UNL1        0.0278
     37 H          10.9189   -0.2403    0.0000 H       1  UNL1        0.0278
     38 H           7.6636   -2.1300    0.0000 H       1  UNL1        0.0476
     39 H           8.4607   -2.1300    0.0000 H       1  UNL1        0.0476
     40 H           9.5482    0.8450    0.0000 H       1  UNL1        0.0248
     41 H           8.9282    1.4650    0.0000 H       1  UNL1        0.0248
     42 H           8.3082    0.8450    0.0000 H       1  UNL1        0.0248
     43 H           6.8671    1.6550    0.0000 H       1  UNL1        0.0661
     44 H           5.4641   -0.7750    0.0000 H       1  UNL1        0.0625
     45 H           5.4641   -0.5350    0.0000 H       1  UNL1        0.0660
     46 H           6.8671   -2.9650    0.0000 H       1  UNL1        0.0624
     47 H           4.0611    0.0350    0.0000 H       1  UNL1        0.0655
     48 H           5.4641   -3.7750    0.0000 H       1  UNL1        0.0619
     49 H           4.0611   -2.9650    0.0000 H       1  UNL1        0.0654
     50 H           6.0010    3.1550    0.0000 H       1  UNL1        0.2923
     51 H           2.5560    1.8819    0.0000 H       1  UNL1        0.0660
     52 H           2.3291    1.0350    0.0000 H       1  UNL1        0.0660
     53 H           3.1760    0.8081    0.0000 H       1  UNL1        0.0660
     54 H           2.3100   -0.6181    0.0000 H       1  UNL1        0.0342
     55 H           1.4631   -0.8450    0.0000 H       1  UNL1        0.0342
     56 H           1.6900   -1.6919    0.0000 H       1  UNL1        0.0342
@<TRIPOS>BOND
     1     1    23    1
     2     1    27    1
     3     2    21    1
     4     2    50    1
     5     3    25    1
     6     3    28    1
     7     4    27    2
     8     5     6    1
     9     5     9    1
    10     5    11    1
    11     6     7    1
    12     6     8    1
    13     6    12    1
    14     7    10    1
    15     7    30    1
    16     7    31    1
    17     8    13    1
    18     8    32    1
    19     8    33    1
    20     9    10    1
    21     9    34    1
    22     9    35    1
    23    10    36    1
    24    10    37    1
    25    11    14    1
    26    11    38    1
    27    11    39    1
    28    12    40    1
    29    12    41    1
    30    12    42    1
    31    13    14    2
    32    13    15    1
    33    14    16    1
    34    15    17   ar
    35    15    18   ar
    36    16    19   ar
    37    16    20   ar
    38    17    21   ar
    39    17    43    1
    40    18    22   ar
    41    18    44    1
    42    19    23   ar
    43    19    45    1
    44    20    24   ar
    45    20    46    1
    46    21    25   ar
    47    22    25   ar
    48    22    47    1
    49    23    26   ar
    50    24    26   ar
    51    24    48    1
    52    26    49    1
    53    27    29    1
    54    28    51    1
    55    28    52    1
    56    28    53    1
    57    29    54    1
    58    29    55    1
    59    29    56    1
