@<TRIPOS>MOLECULE
IMPHY002916
 45 47 0 0 0
SMALL
GASTEIGER

@<TRIPOS>ATOM
      1 O4*         6.1346    2.2369    0.0000 O.3     1  UNL1       -0.3457
      2 O2*         8.4806    1.1450    0.0000 O.3     1  UNL1       -0.3847
      3 O3*         8.4843    3.3206    0.0000 O.3     1  UNL1       -0.3864
      4 O5*         7.0868    4.7384    0.0000 O.3     1  UNL1       -0.3924
      5 N           6.4103    0.4763    0.0000 N.ar    1  UNL1       -0.2855
      6 N           6.4103   -1.1332    0.0000 N.ar    1  UNL1       -0.2306
      7 N           4.5981    0.6716    0.0000 N.ar    1  UNL1       -0.2159
      8 N           4.5981   -2.3284    0.0000 N.pl3   1  UNL1       -0.3237
      9 N           3.7320   -0.8284    0.0000 N.ar    1  UNL1       -0.2186
     10 C2*         7.6726    1.7342    0.0000 C.3     1  UNL1        0.1285
     11 C1*         6.7210    1.4268    0.0000 C.3     1  UNL1        0.1667
     12 C3*         7.6743    2.7342    0.0000 C.3     1  UNL1        0.1135
     13 C4*         6.7238    3.0449    0.0000 C.3     1  UNL1        0.1126
     14 C5*         6.4164    3.9964    0.0000 C.3     1  UNL1        0.0730
     15 C           5.4641    0.1716    0.0000 C.ar    1  UNL1        0.1674
     16 C           6.9939   -0.3284    0.0000 C.ar    1  UNL1        0.1004
     17 C           5.4641   -0.8284    0.0000 C.ar    1  UNL1        0.1475
     18 C           4.5981   -1.3284    0.0000 C.ar    1  UNL1        0.1500
     19 C           3.7320    0.1716    0.0000 C.ar    1  UNL1        0.1205
     20 C           3.7320   -2.8284    0.0000 C.3     1  UNL1        0.0290
     21 C           3.7320   -3.8284    0.0000 C.2     1  UNL1       -0.0684
     22 C           2.8660   -4.3284    0.0000 C.2     1  UNL1       -0.0782
     23 C           2.8660   -5.3284    0.0000 C.3     1  UNL1       -0.0440
     24 C           2.0000   -3.8284    0.0000 C.3     1  UNL1       -0.0440
     25 H2*         8.2255    2.0147    0.0000 H       1  UNL1        0.0665
     26 H1*         6.1085    1.3309    0.0000 H       1  UNL1        0.0866
     27 H3*         8.2262    2.4518    0.0000 H       1  UNL1        0.0647
     28 H4*         6.1116    3.1429    0.0000 H       1  UNL1        0.0647
     29 H5*1        6.0356    4.4857    0.0000 H       1  UNL1        0.0584
     30 H5*2        5.8685    3.7063    0.0000 H       1  UNL1        0.0584
     31 H2*         9.0474    1.3962    0.0000 H       1  UNL1        0.2101
     32 H3*         9.0503    3.0674    0.0000 H       1  UNL1        0.2100
     33 H           7.6139   -0.3284    0.0000 H       1  UNL1        0.1030
     34 H5*         6.8963    5.3284    0.0000 H       1  UNL1        0.2095
     35 H           3.1951    0.4816    0.0000 H       1  UNL1        0.1048
     36 H           5.1350   -2.6384    0.0000 H       1  UNL1        0.1478
     37 H           3.5200   -2.2458    0.0000 H       1  UNL1        0.0505
     38 H           3.1215   -2.9361    0.0000 H       1  UNL1        0.0505
     39 H           4.2690   -4.1384    0.0000 H       1  UNL1        0.0587
     40 H           2.2460   -5.3284    0.0000 H       1  UNL1        0.0274
     41 H           2.8660   -5.9484    0.0000 H       1  UNL1        0.0274
     42 H           3.4860   -5.3284    0.0000 H       1  UNL1        0.0274
     43 H           2.3100   -3.2915    0.0000 H       1  UNL1        0.0274
     44 H           1.4631   -3.5184    0.0000 H       1  UNL1        0.0274
     45 H           1.6900   -4.3654    0.0000 H       1  UNL1        0.0274
@<TRIPOS>BOND
     1     1    11    1
     2     1    13    1
     3    10     2    1
     4     2    31    1
     5    12     3    1
     6     3    32    1
     7     4    14    1
     8     4    34    1
     9    11     5    1
    10     5    15   ar
    11     5    16   ar
    12     6    16   ar
    13     6    17   ar
    14     7    15   ar
    15     7    19   ar
    16     8    18    1
    17     8    20    1
    18     8    36    1
    19     9    18   ar
    20     9    19   ar
    21    10    11    1
    22    10    12    1
    23    10    25    1
    24    11    26    1
    25    12    13    1
    26    12    27    1
    27    13    14    1
    28    13    28    1
    29    14    29    1
    30    14    30    1
    31    15    17   ar
    32    16    33    1
    33    17    18   ar
    34    19    35    1
    35    20    21    1
    36    20    37    1
    37    20    38    1
    38    21    22    2
    39    21    39    1
    40    22    23    1
    41    22    24    1
    42    23    40    1
    43    23    41    1
    44    23    42    1
    45    24    43    1
    46    24    44    1
    47    24    45    1
