@<TRIPOS>MOLECULE
IMPHY004842
 37 39 0 0 0
SMALL
GASTEIGER

@<TRIPOS>ATOM
      1 O           2.7976   -2.6580    0.0000 O.2     1  UNL1       -0.2926
      2 N           3.0238    0.4030    0.0000 N.pl3   1  UNL1       -0.3315
      3 N           7.1227    0.5441    0.0000 N.3     1  UNL1       -0.3123
      4 C           5.0739    0.7094    0.0000 C.3     1  UNL1       -0.0060
      5 C           3.8528   -0.1562    0.0000 C.3     1  UNL1        0.0342
      6 C           5.3327    1.6754    0.0000 C.3     1  UNL1       -0.0124
      7 C           4.5961    2.6580    0.0000 C.3     1  UNL1       -0.0417
      8 C           6.3456   -0.0852    0.0000 C.3     1  UNL1        0.0156
      9 C           3.2994    1.3642    0.0000 C.3     1  UNL1        0.0160
     10 C           6.7643    1.4777    0.0000 C.3     1  UNL1        0.0004
     11 C           3.7962   -1.1963    0.0000 C.3     1  UNL1        0.0288
     12 C           6.3979   -1.0838    0.0000 C.3     1  UNL1       -0.0192
     13 C           2.0807   -0.0392    0.0000 C.2     1  UNL1       -0.0044
     14 C           2.8636   -1.6602    0.0000 C.2     1  UNL1        0.1590
     15 C           2.0000   -1.0777    0.0000 C.2     1  UNL1       -0.0055
     16 C           7.2889   -1.5378    0.0000 C.2     1  UNL1       -0.0896
     17 C           7.3412   -2.5365    0.0000 C.2     1  UNL1       -0.1026
     18 H           4.8539   -0.1116    0.0000 H       1  UNL1        0.0334
     19 H           4.5575   -0.6315    0.0000 H       1  UNL1        0.0507
     20 H           5.5527    2.4964    0.0000 H       1  UNL1        0.0328
     21 H           4.9139    3.1903    0.0000 H       1  UNL1        0.0273
     22 H           3.9829    2.7499    0.0000 H       1  UNL1        0.0273
     23 H           6.9120   -0.3374    0.0000 H       1  UNL1        0.0467
     24 H           3.2944    1.9842    0.0000 H       1  UNL1        0.0467
     25 H           2.6851    1.4480    0.0000 H       1  UNL1        0.0467
     26 H           7.3721    1.6000    0.0000 H       1  UNL1        0.0427
     27 H           6.7453    2.0974    0.0000 H       1  UNL1        0.0427
     28 H           7.7216    0.3836    0.0000 H       1  UNL1        0.1222
     29 H           3.9732   -1.7905    0.0000 H       1  UNL1        0.0363
     30 H           4.4119   -1.1236    0.0000 H       1  UNL1        0.0363
     31 H           5.7825   -1.0083    0.0000 H       1  UNL1        0.0322
     32 H           6.2166   -1.6768    0.0000 H       1  UNL1        0.0322
     33 H           1.5707    0.3134    0.0000 H       1  UNL1        0.0781
     34 H           1.4417   -1.3473    0.0000 H       1  UNL1        0.0665
     35 H           7.8089   -1.2002    0.0000 H       1  UNL1        0.0567
     36 H           6.8213   -2.8741    0.0000 H       1  UNL1        0.0532
     37 H           7.8937   -2.8179    0.0000 H       1  UNL1        0.0532
@<TRIPOS>BOND
     1     1    14    2
     2     2     5    1
     3     2     9    1
     4     2    13    1
     5     3     8    1
     6     3    10    1
     7     3    28    1
     8     4     5    1
     9     4     7    1
    10     4     8    1
    11     4    18    1
    12     5    11    1
    13     5    19    1
    14     6     7    1
    15     6     9    1
    16     6    10    1
    17     6    20    1
    18     7    21    1
    19     7    22    1
    20     8    12    1
    21     8    23    1
    22     9    24    1
    23     9    25    1
    24    10    26    1
    25    10    27    1
    26    11    14    1
    27    11    29    1
    28    11    30    1
    29    12    16    1
    30    12    31    1
    31    12    32    1
    32    13    15    2
    33    13    33    1
    34    14    15    1
    35    15    34    1
    36    16    17    2
    37    16    35    1
    38    17    36    1
    39    17    37    1
