@<TRIPOS>MOLECULE
IMPHY016562
 22 22 0 0 0
SMALL
GASTEIGER

@<TRIPOS>ATOM
      1 O           4.5981    1.7500    0.0000 O.3     1  UNL1       -0.4627
      2 O           5.4641    3.2500    0.0000 O.2     1  UNL1       -0.2546
      3 C           2.8660   -1.2500    0.0000 C.ar    1  UNL1       -0.0252
      4 C           2.8660   -0.2500    0.0000 C.2     1  UNL1       -0.0554
      5 C           2.0000   -1.7500    0.0000 C.ar    1  UNL1       -0.0546
      6 C           3.7320   -1.7500    0.0000 C.ar    1  UNL1       -0.0546
      7 C           3.7320    0.2500    0.0000 C.2     1  UNL1       -0.0465
      8 C           2.0000   -2.7500    0.0000 C.ar    1  UNL1       -0.0612
      9 C           3.7320   -2.7500    0.0000 C.ar    1  UNL1       -0.0612
     10 C           3.7320    1.2500    0.0000 C.3     1  UNL1        0.1107
     11 C           2.8660   -3.2500    0.0000 C.ar    1  UNL1       -0.0617
     12 C           4.5981    2.7500    0.0000 C.2     1  UNL1        0.2945
     13 H           2.3291    0.0600    0.0000 H       1  UNL1        0.0621
     14 H           1.4631   -1.4400    0.0000 H       1  UNL1        0.0623
     15 H           4.2690   -1.4400    0.0000 H       1  UNL1        0.0623
     16 H           4.2690   -0.0600    0.0000 H       1  UNL1        0.0606
     17 H           3.5200    1.8326    0.0000 H       1  UNL1        0.0743
     18 H           3.1215    1.1423    0.0000 H       1  UNL1        0.0743
     19 H           1.4631   -3.0600    0.0000 H       1  UNL1        0.0618
     20 H           4.2690   -3.0600    0.0000 H       1  UNL1        0.0618
     21 H           2.8660   -3.8700    0.0000 H       1  UNL1        0.0618
     22 H           4.0611    3.0600    0.0000 H       1  UNL1        0.1512
@<TRIPOS>BOND
     1     1    10    1
     2     1    12    1
     3     2    12    2
     4     3     4    1
     5     3     5   ar
     6     3     6   ar
     7     4     7    2
     8     4    13    1
     9     5     8   ar
    10     5    14    1
    11     6     9   ar
    12     6    15    1
    13     7    10    1
    14     7    16    1
    15     8    11   ar
    16     8    19    1
    17     9    11   ar
    18     9    20    1
    19    10    17    1
    20    10    18    1
    21    11    21    1
    22    12    22    1
