@<TRIPOS>MOLECULE
IMPHY007415
 50 52 0 0 0
SMALL
GASTEIGER

@<TRIPOS>ATOM
      1 O           6.8671   -0.9050    0.0000 O.3     1  UNL1       -0.3096
      2 O           6.0010    0.5950    0.0000 O.2     1  UNL1       -0.4702
      3 O          10.2629    1.0950    0.0000 O.3     1  UNL1       -0.3915
      4 O           5.1350   -0.9050    0.0000 O.3     1  UNL1       -0.3404
      5 O           6.8671   -2.9050    0.0000 O.3     1  UNL1       -0.3841
      6 O           5.1350   -3.9050    0.0000 O.3     1  UNL1       -0.3864
      7 O           3.4030   -2.9050    0.0000 O.3     1  UNL1       -0.3865
      8 O           6.0010    3.5950    0.0000 O.3     1  UNL1       -0.4773
      9 O           7.7331    3.5950    0.0000 O.2     1  UNL1       -0.2454
     10 O           2.5369   -1.4050    0.0000 O.3     1  UNL1       -0.3924
     11 C           7.7331    0.5950    0.0000 C.3     1  UNL1        0.0338
     12 C           7.7331    1.5950    0.0000 C.3     1  UNL1        0.0050
     13 C           8.6793    0.2903    0.0000 C.3     1  UNL1       -0.0087
     14 C           9.2629    1.0950    0.0000 C.3     1  UNL1        0.0588
     15 C           8.6793    1.8997    0.0000 C.3     1  UNL1       -0.0190
     16 C           6.8671    0.0950    0.0000 C.3     1  UNL1        0.2071
     17 C           6.8671    2.0950    0.0000 C.2     1  UNL1        0.0742
     18 C           8.9900   -0.6603    0.0000 C.3     1  UNL1       -0.0596
     19 C           6.0010   -1.4050    0.0000 C.3     1  UNL1        0.1918
     20 C           6.0010    1.5950    0.0000 C.2     1  UNL1        0.0981
     21 C           6.0010   -2.4050    0.0000 C.3     1  UNL1        0.1342
     22 C           5.1350   -2.9050    0.0000 C.3     1  UNL1        0.1141
     23 C           4.2690   -2.4050    0.0000 C.3     1  UNL1        0.1119
     24 C           4.2690   -1.4050    0.0000 C.3     1  UNL1        0.1130
     25 C           6.8671    3.0950    0.0000 C.2     1  UNL1        0.3360
     26 C           3.4030   -0.9050    0.0000 C.3     1  UNL1        0.0730
     27 H           7.8230   -0.2502    0.0000 H       1  UNL1        0.0370
     28 H           7.8230    2.4402    0.0000 H       1  UNL1        0.0358
     29 H           8.2418   -0.1491    0.0000 H       1  UNL1        0.0328
     30 H           9.5446    0.5427    0.0000 H       1  UNL1        0.0596
     31 H           9.2167    2.2090    0.0000 H       1  UNL1        0.0296
     32 H           8.4283    2.4666    0.0000 H       1  UNL1        0.0296
     33 H           7.4040   -0.2150    0.0000 H       1  UNL1        0.1059
     34 H           8.4006   -0.8529    0.0000 H       1  UNL1        0.0233
     35 H           9.1826   -1.2496    0.0000 H       1  UNL1        0.0233
     36 H           9.5793   -0.4676    0.0000 H       1  UNL1        0.0233
     37 H           6.0010   -0.7850    0.0000 H       1  UNL1        0.0939
     38 H           5.4641    1.9050    0.0000 H       1  UNL1        0.1029
     39 H           6.0010   -3.0250    0.0000 H       1  UNL1        0.0671
     40 H          10.5729    1.6319    0.0000 H       1  UNL1        0.2098
     41 H           4.5981   -3.2150    0.0000 H       1  UNL1        0.0648
     42 H           3.7320   -2.0950    0.0000 H       1  UNL1        0.0647
     43 H           4.2690   -0.7850    0.0000 H       1  UNL1        0.0647
     44 H           3.8015   -0.4301    0.0000 H       1  UNL1        0.0584
     45 H           3.0044   -0.4301    0.0000 H       1  UNL1        0.0584
     46 H           6.8671   -3.5250    0.0000 H       1  UNL1        0.2101
     47 H           4.5981   -4.2150    0.0000 H       1  UNL1        0.2100
     48 H           3.4030   -3.5250    0.0000 H       1  UNL1        0.2100
     49 H           6.0010    4.2150    0.0000 H       1  UNL1        0.2954
     50 H           2.0000   -1.0950    0.0000 H       1  UNL1        0.2095
@<TRIPOS>BOND
     1    16     1    1
     2    19     1    1
     3     2    16    1
     4     2    20    1
     5    14     3    1
     6     3    40    1
     7     4    19    1
     8     4    24    1
     9    21     5    1
    10     5    46    1
    11    22     6    1
    12     6    47    1
    13    23     7    1
    14     7    48    1
    15     8    25    1
    16     8    49    1
    17     9    25    2
    18    10    26    1
    19    10    50    1
    20    11    12    1
    21    11    13    1
    22    11    16    1
    23    11    27    1
    24    12    15    1
    25    12    17    1
    26    12    28    1
    27    13    14    1
    28    13    18    1
    29    13    29    1
    30    14    15    1
    31    14    30    1
    32    15    31    1
    33    15    32    1
    34    16    33    1
    35    17    20    2
    36    17    25    1
    37    18    34    1
    38    18    35    1
    39    18    36    1
    40    19    21    1
    41    19    37    1
    42    20    38    1
    43    21    22    1
    44    21    39    1
    45    22    23    1
    46    22    41    1
    47    23    24    1
    48    23    42    1
    49    24    26    1
    50    24    43    1
    51    26    44    1
    52    26    45    1
