@<TRIPOS>MOLECULE
IMPHY001622
 131 140 0 0 0
SMALL
GASTEIGER

@<TRIPOS>ATOM
      1 O          10.3609   -5.0972    0.0000 O.3     1  UNL1       -0.4570
      2 O           3.6472    4.7211    0.0000 O.3     1  UNL1       -0.4570
      3 O          11.6284   -3.1425    0.0000 O.3     1  UNL1       -0.3733
      4 O           4.7063    2.6461    0.0000 O.3     1  UNL1       -0.3733
      5 O          12.3715   -3.8117    0.0000 O.3     1  UNL1       -0.4658
      6 O           3.7553    2.3371    0.0000 O.3     1  UNL1       -0.4658
      7 O          12.1637   -4.7898    0.0000 O.2     1  UNL1       -0.2474
      8 O           3.0121    3.0062    0.0000 O.2     1  UNL1       -0.2474
      9 O          11.7308    1.3478    0.0000 O.3     1  UNL1       -0.4948
     10 O           8.5438    0.3122    0.0000 O.3     1  UNL1       -0.4948
     11 O           2.0000    4.1858    0.0000 O.2     1  UNL1       -0.2512
     12 O          11.6481   -6.2562    0.0000 O.2     1  UNL1       -0.2512
     13 N           7.9345   -2.8685    0.0000 N.3     1  UNL1       -0.2939
     14 N           6.7906    5.7081    0.0000 N.3     1  UNL1       -0.2939
     15 N          11.0139   -1.8680    0.0000 N.pl3   1  UNL1       -0.3252
     16 N           6.1174    2.5409    0.0000 N.pl3   1  UNL1       -0.3252
     17 C           9.4742   -2.3682    0.0000 C.3     1  UNL1        0.0369
     18 C           6.4540    4.1245    0.0000 C.3     1  UNL1        0.0369
     19 C           8.8488   -3.0629    0.0000 C.3     1  UNL1        0.0348
     20 C           6.1651    5.0135    0.0000 C.3     1  UNL1        0.0348
     21 C          10.3885   -2.5626    0.0000 C.3     1  UNL1        0.0772
     22 C           5.8285    3.4299    0.0000 C.3     1  UNL1        0.0772
     23 C           5.2508    5.2078    0.0000 C.3     1  UNL1        0.0453
     24 C           9.1376   -3.9518    0.0000 C.3     1  UNL1        0.0453
     25 C          10.6773   -3.4516    0.0000 C.3     1  UNL1        0.2195
     26 C           4.9142    3.6242    0.0000 C.3     1  UNL1        0.2195
     27 C           9.0891   -1.3326    0.0000 C.3     1  UNL1       -0.0272
     28 C           7.5434    3.9402    0.0000 C.3     1  UNL1       -0.0272
     29 C          10.0519   -4.1462    0.0000 C.3     1  UNL1        0.1542
     30 C           4.6254    4.5132    0.0000 C.3     1  UNL1        0.1542
     31 C           9.8108   -0.7846    0.0000 C.ar    1  UNL1       -0.0163
     32 C           7.6571    3.0412    0.0000 C.ar    1  UNL1       -0.0163
     33 C           7.6456   -1.9796    0.0000 C.3     1  UNL1        0.0005
     34 C           7.7049    5.5138    0.0000 C.3     1  UNL1        0.0005
     35 C           4.2727    5.4158    0.0000 C.3     1  UNL1       -0.0418
     36 C           9.4466   -4.9029    0.0000 C.3     1  UNL1       -0.0418
     37 C          10.7251   -0.9790    0.0000 C.ar    1  UNL1        0.0372
     38 C           7.0317    2.3466    0.0000 C.ar    1  UNL1        0.0372
     39 C           8.5122   -4.6465    0.0000 C.2     1  UNL1       -0.0755
     40 C           4.9620    6.0968    0.0000 C.2     1  UNL1       -0.0755
     41 C           7.3090   -3.5632    0.0000 C.3     1  UNL1        0.0175
     42 C           6.5017    6.5971    0.0000 C.3     1  UNL1        0.0175
     43 C           7.5979   -4.4521    0.0000 C.2     1  UNL1       -0.0733
     44 C           5.5874    6.7914    0.0000 C.2     1  UNL1       -0.0733
     45 C           9.5220    0.1043    0.0000 C.ar    1  UNL1       -0.0492
     46 C           8.5714    2.8469    0.0000 C.ar    1  UNL1       -0.0492
     47 C          11.4205   -4.1207    0.0000 C.2     1  UNL1        0.3446
     48 C           3.9632    3.3152    0.0000 C.2     1  UNL1        0.3446
     49 C          11.9650   -1.5589    0.0000 C.3     1  UNL1        0.0011
     50 C           5.9095    1.5628    0.0000 C.3     1  UNL1        0.0011
     51 C          11.3505   -0.2844    0.0000 C.ar    1  UNL1        0.0017
     52 C           7.3205    1.4576    0.0000 C.ar    1  UNL1        0.0017
     53 C           8.7775   -5.6460    0.0000 C.3     1  UNL1       -0.0643
     54 C           3.9637    6.3668    0.0000 C.3     1  UNL1       -0.0643
     55 C          10.1474    0.7990    0.0000 C.ar    1  UNL1       -0.0009
     56 C           8.8602    1.9579    0.0000 C.ar    1  UNL1       -0.0009
     57 C           9.8384    1.7500    0.0000 C.3     1  UNL1        0.0045
     58 C           8.2348    1.2633    0.0000 C.ar    1  UNL1        0.1253
     59 C          11.0617    0.6046    0.0000 C.ar    1  UNL1        0.1253
     60 C           2.6691    4.9290    0.0000 C.2     1  UNL1        0.3043
     61 C          10.6699   -6.0483    0.0000 C.2     1  UNL1        0.3043
     62 C          10.0008   -6.7914    0.0000 C.3     1  UNL1        0.0332
     63 C           2.3601    5.8801    0.0000 C.3     1  UNL1        0.0332
     64 C          13.1147   -4.4808    0.0000 C.3     1  UNL1        0.0818
     65 C           2.8042    2.0281    0.0000 C.3     1  UNL1        0.0818
     66 C          12.7090    1.1398    0.0000 C.3     1  UNL1        0.0788
     67 C           7.8747   -0.4309    0.0000 C.3     1  UNL1        0.0788
     68 H           8.2800   -3.6946    0.0000 H       1  UNL1        0.0482
     69 H           5.9025    5.8219    0.0000 H       1  UNL1        0.0482
     70 H          11.2199   -2.7393    0.0000 H       1  UNL1        0.0544
     71 H           5.2598    2.7982    0.0000 H       1  UNL1        0.0544
     72 H           9.6654   -1.1039    0.0000 H       1  UNL1        0.0287
     73 H           8.8479   -0.7615    0.0000 H       1  UNL1        0.0287
     74 H           7.4533    3.3268    0.0000 H       1  UNL1        0.0287
     75 H           8.1586    3.8635    0.0000 H       1  UNL1        0.0287
     76 H          10.8833   -4.3229    0.0000 H       1  UNL1        0.0779
     77 H           4.0566    3.8815    0.0000 H       1  UNL1        0.0779
     78 H           8.3190    5.4285    0.0000 H       1  UNL1        0.0427
     79 H           7.8120    6.1245    0.0000 H       1  UNL1        0.0427
     80 H           7.4124   -1.4051    0.0000 H       1  UNL1        0.0427
     81 H           7.0632   -2.1921    0.0000 H       1  UNL1        0.0427
     82 H           9.8283   -5.3915    0.0000 H       1  UNL1        0.0273
     83 H           9.9940   -4.6118    0.0000 H       1  UNL1        0.0273
     84 H           3.6587    5.3295    0.0000 H       1  UNL1        0.0273
     85 H           4.2511    4.7961    0.0000 H       1  UNL1        0.0273
     86 H           8.7037   -5.2361    0.0000 H       1  UNL1        0.0577
     87 H           4.3556    6.2257    0.0000 H       1  UNL1        0.0577
     88 H           7.1157    6.6834    0.0000 H       1  UNL1        0.0470
     89 H           6.5234    7.2167    0.0000 H       1  UNL1        0.0470
     90 H           6.9273   -3.0746    0.0000 H       1  UNL1        0.0470
     91 H           6.7616   -3.8542    0.0000 H       1  UNL1        0.0470
     92 H           7.1830   -4.9129    0.0000 H       1  UNL1        0.0582
     93 H           5.3959    7.3811    0.0000 H       1  UNL1        0.0582
     94 H           8.9155    0.2332    0.0000 H       1  UNL1        0.0625
     95 H           8.9863    3.3076    0.0000 H       1  UNL1        0.0625
     96 H          12.0432   -2.6818    0.0000 H       1  UNL1        0.2111
     97 H           4.8979    2.0564    0.0000 H       1  UNL1        0.2111
     98 H           5.3030    1.6917    0.0000 H       1  UNL1        0.0428
     99 H           5.7806    0.9563    0.0000 H       1  UNL1        0.0428
    100 H           6.5159    1.4339    0.0000 H       1  UNL1        0.0428
    101 H          12.1566   -2.1486    0.0000 H       1  UNL1        0.0428
    102 H          12.5546   -1.3673    0.0000 H       1  UNL1        0.0428
    103 H          11.7734   -0.9693    0.0000 H       1  UNL1        0.0428
    104 H          11.9570   -0.4133    0.0000 H       1  UNL1        0.0673
    105 H           6.9056    0.9969    0.0000 H       1  UNL1        0.0673
    106 H           4.5533    6.5584    0.0000 H       1  UNL1        0.0230
    107 H           3.7721    6.9565    0.0000 H       1  UNL1        0.0230
    108 H           3.3740    6.1752    0.0000 H       1  UNL1        0.0230
    109 H           8.3167   -5.2312    0.0000 H       1  UNL1        0.0230
    110 H           8.3626   -6.1068    0.0000 H       1  UNL1        0.0230
    111 H           9.2382   -6.0609    0.0000 H       1  UNL1        0.0230
    112 H          10.4524    1.8363    0.0000 H       1  UNL1        0.0364
    113 H           9.8600    2.3696    0.0000 H       1  UNL1        0.0364
    114 H           2.9498    6.0717    0.0000 H       1  UNL1        0.0342
    115 H           2.1686    6.4698    0.0000 H       1  UNL1        0.0342
    116 H           1.7705    5.6886    0.0000 H       1  UNL1        0.0342
    117 H           9.5401   -6.3766    0.0000 H       1  UNL1        0.0342
    118 H           9.5859   -7.2522    0.0000 H       1  UNL1        0.0342
    119 H          10.4615   -7.2063    0.0000 H       1  UNL1        0.0342
    120 H           2.6126    2.6177    0.0000 H       1  UNL1        0.0661
    121 H           2.2146    1.8365    0.0000 H       1  UNL1        0.0661
    122 H           2.9958    1.4384    0.0000 H       1  UNL1        0.0661
    123 H          12.6998   -4.9415    0.0000 H       1  UNL1        0.0661
    124 H          13.5754   -4.8956    0.0000 H       1  UNL1        0.0661
    125 H          13.5295   -4.0200    0.0000 H       1  UNL1        0.0661
    126 H          12.5801    0.5334    0.0000 H       1  UNL1        0.0660
    127 H          13.3154    1.0109    0.0000 H       1  UNL1        0.0660
    128 H          12.8379    1.7463    0.0000 H       1  UNL1        0.0660
    129 H           7.4139   -0.0160    0.0000 H       1  UNL1        0.0660
    130 H           7.4598   -0.8917    0.0000 H       1  UNL1        0.0660
    131 H           8.3354   -0.8458    0.0000 H       1  UNL1        0.0660
@<TRIPOS>BOND
     1     1    29    1
     2     1    61    1
     3     2    30    1
     4     2    60    1
     5     3    25    1
     6     3    96    1
     7     4    26    1
     8     4    97    1
     9     5    47    1
    10     5    64    1
    11     6    48    1
    12     6    65    1
    13     7    47    2
    14     8    48    2
    15     9    59    1
    16     9    66    1
    17    10    58    1
    18    10    67    1
    19    11    60    2
    20    12    61    2
    21    13    19    1
    22    13    33    1
    23    13    41    1
    24    14    20    1
    25    14    34    1
    26    14    42    1
    27    15    21    1
    28    15    37    1
    29    15    49    1
    30    16    22    1
    31    16    38    1
    32    16    50    1
    33    17    19    1
    34    17    21    1
    35    17    27    1
    36    17    31    1
    37    18    20    1
    38    18    22    1
    39    18    28    1
    40    18    32    1
    41    19    24    1
    42    19    68    1
    43    20    23    1
    44    20    69    1
    45    21    25    1
    46    21    70    1
    47    22    26    1
    48    22    71    1
    49    23    30    1
    50    23    35    1
    51    23    40    1
    52    24    29    1
    53    24    36    1
    54    24    39    1
    55    25    29    1
    56    25    47    1
    57    26    30    1
    58    26    48    1
    59    27    33    1
    60    27    72    1
    61    27    73    1
    62    28    34    1
    63    28    74    1
    64    28    75    1
    65    29    76    1
    66    30    77    1
    67    31    37   ar
    68    31    45   ar
    69    32    38   ar
    70    32    46   ar
    71    33    80    1
    72    33    81    1
    73    34    78    1
    74    34    79    1
    75    35    54    1
    76    35    84    1
    77    35    85    1
    78    36    53    1
    79    36    82    1
    80    36    83    1
    81    37    51   ar
    82    38    52   ar
    83    39    43    2
    84    39    86    1
    85    40    44    2
    86    40    87    1
    87    41    43    1
    88    41    90    1
    89    41    91    1
    90    42    44    1
    91    42    88    1
    92    42    89    1
    93    43    92    1
    94    44    93    1
    95    45    55   ar
    96    45    94    1
    97    46    56   ar
    98    46    95    1
    99    49   101    1
   100    49   102    1
   101    49   103    1
   102    50    98    1
   103    50    99    1
   104    50   100    1
   105    51    59   ar
   106    51   104    1
   107    52    58   ar
   108    52   105    1
   109    53   109    1
   110    53   110    1
   111    53   111    1
   112    54   106    1
   113    54   107    1
   114    54   108    1
   115    55    57    1
   116    55    59   ar
   117    56    57    1
   118    56    58   ar
   119    57   112    1
   120    57   113    1
   121    60    63    1
   122    61    62    1
   123    62   117    1
   124    62   118    1
   125    62   119    1
   126    63   114    1
   127    63   115    1
   128    63   116    1
   129    64   123    1
   130    64   124    1
   131    64   125    1
   132    65   120    1
   133    65   121    1
   134    65   122    1
   135    66   126    1
   136    66   127    1
   137    66   128    1
   138    67   129    1
   139    67   130    1
   140    67   131    1
