@<TRIPOS>MOLECULE
IMPHY007671
 48 51 0 0 0
SMALL
GASTEIGER

@<TRIPOS>ATOM
      1 O           7.5587   -2.6708    0.0000 O.3     1  UNL1       -0.3950
      2 N           6.9654    1.9372    0.0000 N.3     1  UNL1       -0.2934
      3 N           4.5124    0.8198    0.0000 N.ar    1  UNL1       -0.3564
      4 C           7.6200   -0.0258    0.0000 C.3     1  UNL1       -0.0332
      5 C           6.2962    1.1941    0.0000 C.3     1  UNL1        0.0512
      6 C           8.3170    0.7483    0.0000 C.3     1  UNL1       -0.0255
      7 C           6.6028    0.1986    0.0000 C.3     1  UNL1       -0.0286
      8 C           7.9875    1.7364    0.0000 C.3     1  UNL1        0.0026
      9 C           5.3181    1.4020    0.0000 C.ar    1  UNL1        0.0376
     10 C           6.6564    2.8883    0.0000 C.3     1  UNL1        0.0036
     11 C           7.9253   -0.9780    0.0000 C.3     1  UNL1       -0.0265
     12 C           9.2959    0.5441    0.0000 C.3     1  UNL1       -0.0516
     13 C           5.0091    2.3531    0.0000 C.ar    1  UNL1       -0.0164
     14 C           5.6782    3.0962    0.0000 C.3     1  UNL1       -0.0125
     15 C           4.0150    2.3505    0.0000 C.ar    1  UNL1        0.0032
     16 C           3.7086    1.4048    0.0000 C.ar    1  UNL1        0.0470
     17 C           7.2533   -1.7186    0.0000 C.3     1  UNL1        0.0445
     18 C           9.9622    1.2899    0.0000 C.3     1  UNL1       -0.0650
     19 C           3.3334    3.1300    0.0000 C.ar    1  UNL1       -0.0523
     20 C           2.6994    1.1730    0.0000 C.ar    1  UNL1       -0.0378
     21 C           2.3191    2.9216    0.0000 C.ar    1  UNL1       -0.0611
     22 C           2.0000    1.9366    0.0000 C.ar    1  UNL1       -0.0598
     23 H           8.2262   -0.1559    0.0000 H       1  UNL1        0.0305
     24 H           5.7226    0.5668    0.0000 H       1  UNL1        0.0527
     25 H           8.5097    0.1590    0.0000 H       1  UNL1        0.0316
     26 H           5.9878    0.1202    0.0000 H       1  UNL1        0.0287
     27 H           6.5748   -0.4208    0.0000 H       1  UNL1        0.0287
     28 H           8.6005    1.8290    0.0000 H       1  UNL1        0.0429
     29 H           8.0011    2.3563    0.0000 H       1  UNL1        0.0429
     30 H           7.2703    2.9746    0.0000 H       1  UNL1        0.0430
     31 H           6.6780    3.5079    0.0000 H       1  UNL1        0.0430
     32 H           8.3052   -1.4681    0.0000 H       1  UNL1        0.0290
     33 H           8.4739   -0.6891    0.0000 H       1  UNL1        0.0290
     34 H           9.0659   -0.0316    0.0000 H       1  UNL1        0.0266
     35 H           9.8230    0.2176    0.0000 H       1  UNL1        0.0266
     36 H           5.9105    3.6711    0.0000 H       1  UNL1        0.0326
     37 H           5.1524    3.4248    0.0000 H       1  UNL1        0.0326
     38 H           4.5113    0.1998    0.0000 H       1  UNL1        0.1656
     39 H           6.8735   -1.2286    0.0000 H       1  UNL1        0.0557
     40 H           6.7048   -2.0076    0.0000 H       1  UNL1        0.0557
     41 H          10.4245    0.8768    0.0000 H       1  UNL1        0.0230
     42 H          10.3752    1.7522    0.0000 H       1  UNL1        0.0230
     43 H           9.4998    1.7029    0.0000 H       1  UNL1        0.0230
     44 H           3.5313    3.7176    0.0000 H       1  UNL1        0.0624
     45 H           2.5152    0.5811    0.0000 H       1  UNL1        0.0638
     46 H           1.9056    3.3836    0.0000 H       1  UNL1        0.0618
     47 H           7.1420   -3.1300    0.0000 H       1  UNL1        0.2094
     48 H           1.3942    1.8048    0.0000 H       1  UNL1        0.0618
@<TRIPOS>BOND
     1     1    17    1
     2     1    47    1
     3     2     5    1
     4     2     8    1
     5     2    10    1
     6     3     9   ar
     7     3    16   ar
     8     3    38    1
     9     4     6    1
    10     4     7    1
    11     4    11    1
    12     4    23    1
    13     5     7    1
    14     5     9    1
    15     5    24    1
    16     6     8    1
    17     6    12    1
    18     6    25    1
    19     7    26    1
    20     7    27    1
    21     8    28    1
    22     8    29    1
    23     9    13   ar
    24    10    14    1
    25    10    30    1
    26    10    31    1
    27    11    17    1
    28    11    32    1
    29    11    33    1
    30    12    18    1
    31    12    34    1
    32    12    35    1
    33    13    14    1
    34    13    15   ar
    35    14    36    1
    36    14    37    1
    37    15    16   ar
    38    15    19   ar
    39    16    20   ar
    40    17    39    1
    41    17    40    1
    42    18    41    1
    43    18    42    1
    44    18    43    1
    45    19    21   ar
    46    19    44    1
    47    20    22   ar
    48    20    45    1
    49    21    22   ar
    50    21    46    1
    51    22    48    1
