@<TRIPOS>MOLECULE
IMPHY005438
 35 37 0 0 0
SMALL
GASTEIGER

@<TRIPOS>ATOM
      1 O           6.0682   -0.2704    0.0000 O.3     1  UNL1       -0.4802
      2 O           7.8003    1.7296    0.0000 O.3     1  UNL1       -0.3798
      3 O           6.0682    2.7296    0.0000 O.2     1  UNL1       -0.2889
      4 O           4.3198    2.7642    0.0000 O.3     1  UNL1       -0.5058
      5 O          10.3984    0.2296    0.0000 O.3     1  UNL1       -0.5032
      6 O           8.6663   -2.7704    0.0000 O.3     1  UNL1       -0.5032
      7 O           2.5381   -0.2945    0.0000 O.3     1  UNL1       -0.5065
      8 O          10.3984   -1.7704    0.0000 O.3     1  UNL1       -0.5009
      9 C           6.9343    0.2296    0.0000 C.3     1  UNL1        0.1583
     10 C           6.9343    1.2296    0.0000 C.3     1  UNL1        0.1585
     11 C           7.8003   -0.2704    0.0000 C.ar    1  UNL1        0.0027
     12 C           6.0682    1.7296    0.0000 C.2     1  UNL1        0.2024
     13 C           5.2022    1.2296    0.0000 C.ar    1  UNL1        0.1033
     14 C           5.2022    0.2296    0.0000 C.ar    1  UNL1        0.1391
     15 C           7.8003   -1.2704    0.0000 C.ar    1  UNL1       -0.0095
     16 C           8.6663    0.2296    0.0000 C.ar    1  UNL1       -0.0095
     17 C           4.3083    1.7643    0.0000 C.ar    1  UNL1        0.1344
     18 C           4.3083   -0.3051    0.0000 C.ar    1  UNL1        0.0225
     19 C           9.5323   -0.2704    0.0000 C.ar    1  UNL1        0.1623
     20 C           8.6663   -1.7704    0.0000 C.ar    1  UNL1        0.1623
     21 C           3.4022    1.2504    0.0000 C.ar    1  UNL1        0.0222
     22 C           3.4022    0.2088    0.0000 C.ar    1  UNL1        0.1238
     23 C           9.5323   -1.2704    0.0000 C.ar    1  UNL1        0.2006
     24 H           6.9343   -0.3904    0.0000 H       1  UNL1        0.0815
     25 H           6.9343    1.8496    0.0000 H       1  UNL1        0.0718
     26 H           7.2634   -1.5804    0.0000 H       1  UNL1        0.0659
     27 H           8.6663    0.8496    0.0000 H       1  UNL1        0.0659
     28 H           4.3154   -0.9250    0.0000 H       1  UNL1        0.0691
     29 H           7.8003    2.3496    0.0000 H       1  UNL1        0.2105
     30 H           2.8665    1.5625    0.0000 H       1  UNL1        0.0691
     31 H           3.7865    3.0804    0.0000 H       1  UNL1        0.2922
     32 H          10.3984    0.8496    0.0000 H       1  UNL1        0.2923
     33 H           8.1294   -3.0804    0.0000 H       1  UNL1        0.2923
     34 H           2.0000    0.0134    0.0000 H       1  UNL1        0.2921
     35 H          10.3984   -2.3904    0.0000 H       1  UNL1        0.2924
@<TRIPOS>BOND
     1     1     9    1
     2     1    14    1
     3    10     2    1
     4     2    29    1
     5     3    12    2
     6     4    17    1
     7     4    31    1
     8     5    19    1
     9     5    32    1
    10     6    20    1
    11     6    33    1
    12     7    22    1
    13     7    34    1
    14     8    23    1
    15     8    35    1
    16     9    10    1
    17     9    11    1
    18     9    24    1
    19    10    12    1
    20    10    25    1
    21    11    15   ar
    22    11    16   ar
    23    12    13    1
    24    13    14   ar
    25    13    17   ar
    26    14    18   ar
    27    15    20   ar
    28    15    26    1
    29    16    19   ar
    30    16    27    1
    31    17    21   ar
    32    18    22   ar
    33    18    28    1
    34    19    23   ar
    35    20    23   ar
    36    21    22   ar
    37    21    30    1
