@<TRIPOS>MOLECULE
IMPHY006189
 52 53 0 0 0
SMALL
GASTEIGER

@<TRIPOS>ATOM
      1 O           4.5981    0.5000    0.0000 O.3     1  UNL1       -0.4825
      2 O           4.5981    2.5000    0.0000 O.3     1  UNL1       -0.3835
      3 O           8.9282    2.0000    0.0000 O.3     1  UNL1       -0.4914
      4 O           8.9282    4.0000    0.0000 O.3     1  UNL1       -0.4915
      5 O           2.8660   -0.5000    0.0000 O.3     1  UNL1       -0.4914
      6 C           5.4641    2.0000    0.0000 C.3     1  UNL1        0.1167
      7 C           5.4641    1.0000    0.0000 C.3     1  UNL1        0.1274
      8 C           6.3301    2.5000    0.0000 C.ar    1  UNL1       -0.0120
      9 C           6.3301    0.5000    0.0000 C.3     1  UNL1       -0.0250
     10 C           7.1962    2.0000    0.0000 C.ar    1  UNL1       -0.0106
     11 C           6.3301    3.5000    0.0000 C.ar    1  UNL1       -0.0523
     12 C           4.5981   -0.5000    0.0000 C.ar    1  UNL1        0.1625
     13 C           8.0622    2.5000    0.0000 C.ar    1  UNL1        0.1618
     14 C           7.1962    4.0000    0.0000 C.ar    1  UNL1       -0.0160
     15 C           8.0622    3.5000    0.0000 C.ar    1  UNL1        0.1615
     16 C           3.7320   -1.0000    0.0000 C.ar    1  UNL1        0.1621
     17 C           5.4641   -1.0000    0.0000 C.ar    1  UNL1       -0.0157
     18 C           3.7320   -2.0000    0.0000 C.ar    1  UNL1       -0.0092
     19 C           4.5981   -2.5000    0.0000 C.ar    1  UNL1       -0.0216
     20 C           5.4641   -2.0000    0.0000 C.ar    1  UNL1       -0.0509
     21 C           4.5981   -3.5000    0.0000 C.2     1  UNL1       -0.0587
     22 C           9.7942    2.5000    0.0000 C.3     1  UNL1        0.0790
     23 C           8.9282    5.0000    0.0000 C.3     1  UNL1        0.0790
     24 C           2.0000   -1.0000    0.0000 C.3     1  UNL1        0.0790
     25 C           5.4641   -4.0000    0.0000 C.2     1  UNL1       -0.0865
     26 C           5.4641   -5.0000    0.0000 C.3     1  UNL1       -0.0465
     27 H           5.4641    2.6200    0.0000 H       1  UNL1        0.0681
     28 H           5.4641    0.3800    0.0000 H       1  UNL1        0.0760
     29 H           6.0201   -0.0369    0.0000 H       1  UNL1        0.0266
     30 H           6.8671    0.1900    0.0000 H       1  UNL1        0.0266
     31 H           6.6401    1.0369    0.0000 H       1  UNL1        0.0266
     32 H           7.1962    1.3800    0.0000 H       1  UNL1        0.0659
     33 H           5.7932    3.8100    0.0000 H       1  UNL1        0.0622
     34 H           4.5981    3.1200    0.0000 H       1  UNL1        0.2104
     35 H           7.1962    4.6200    0.0000 H       1  UNL1        0.0655
     36 H           6.0010   -0.6900    0.0000 H       1  UNL1        0.0655
     37 H           3.1951   -2.3100    0.0000 H       1  UNL1        0.0661
     38 H           6.0010   -2.3100    0.0000 H       1  UNL1        0.0625
     39 H           4.0611   -3.8100    0.0000 H       1  UNL1        0.0620
     40 H          10.1042    1.9631    0.0000 H       1  UNL1        0.0660
     41 H          10.3312    2.8100    0.0000 H       1  UNL1        0.0660
     42 H           9.4842    3.0369    0.0000 H       1  UNL1        0.0660
     43 H           9.5482    5.0000    0.0000 H       1  UNL1        0.0660
     44 H           8.9282    5.6200    0.0000 H       1  UNL1        0.0660
     45 H           8.3082    5.0000    0.0000 H       1  UNL1        0.0660
     46 H           1.6900   -0.4631    0.0000 H       1  UNL1        0.0660
     47 H           1.4631   -1.3100    0.0000 H       1  UNL1        0.0660
     48 H           2.3100   -1.5369    0.0000 H       1  UNL1        0.0660
     49 H           6.0010   -3.6900    0.0000 H       1  UNL1        0.0569
     50 H           4.8441   -5.0000    0.0000 H       1  UNL1        0.0272
     51 H           5.4641   -5.6200    0.0000 H       1  UNL1        0.0272
     52 H           6.0841   -5.0000    0.0000 H       1  UNL1        0.0272
@<TRIPOS>BOND
     1     7     1    1
     2     1    12    1
     3     6     2    1
     4     2    34    1
     5     3    13    1
     6     3    22    1
     7     4    15    1
     8     4    23    1
     9     5    16    1
    10     5    24    1
    11     6     7    1
    12     6     8    1
    13     6    27    1
    14     7     9    1
    15     7    28    1
    16     8    10   ar
    17     8    11   ar
    18     9    29    1
    19     9    30    1
    20     9    31    1
    21    10    13   ar
    22    10    32    1
    23    11    14   ar
    24    11    33    1
    25    12    16   ar
    26    12    17   ar
    27    13    15   ar
    28    14    15   ar
    29    14    35    1
    30    16    18   ar
    31    17    20   ar
    32    17    36    1
    33    18    19   ar
    34    18    37    1
    35    19    20   ar
    36    19    21    1
    37    20    38    1
    38    21    25    2
    39    21    39    1
    40    22    40    1
    41    22    41    1
    42    22    42    1
    43    23    43    1
    44    23    44    1
    45    23    45    1
    46    24    46    1
    47    24    47    1
    48    24    48    1
    49    25    26    1
    50    25    49    1
    51    26    50    1
    52    26    51    1
    53    26    52    1
