@<TRIPOS>MOLECULE
IMPHY011600
 37 38 0 0 0
SMALL
GASTEIGER

@<TRIPOS>ATOM
      1 O           6.4310   -0.3764    0.0000 O.3     1  UNL1       -0.4580
      2 O           5.8386   -2.0040    0.0000 O.2     1  UNL1       -0.2453
      3 N           3.9190    2.2206    0.0000 N.3     1  UNL1       -0.2992
      4 C           3.1824    1.2380    0.0000 C.3     1  UNL1        0.0138
      5 C           3.4412    0.2720    0.0000 C.3     1  UNL1        0.0138
      6 C           1.7835    0.7292    0.0000 C.3     1  UNL1       -0.0358
      7 C           2.0423   -0.2368    0.0000 C.3     1  UNL1       -0.0358
      8 C           5.2157    0.9268    0.0000 C.3     1  UNL1        0.0000
      9 C           4.6623   -0.5936    0.0000 C.3     1  UNL1        0.0000
     10 C           5.4913   -0.0344    0.0000 C.3     1  UNL1        0.1062
     11 C           4.4190    3.0866    0.0000 C.3     1  UNL1       -0.0122
     12 C           6.6046   -1.3612    0.0000 C.2     1  UNL1        0.3348
     13 C           7.5443   -1.7033    0.0000 C.2     1  UNL1        0.0293
     14 C           8.3104   -1.0605    0.0000 C.3     1  UNL1       -0.0333
     15 C           7.7180   -2.6881    0.0000 C.2     1  UNL1       -0.0774
     16 C           8.6577   -3.0301    0.0000 C.3     1  UNL1       -0.0461
     17 H           2.9624    2.0590    0.0000 H       1  UNL1        0.0464
     18 H           3.6612   -0.5490    0.0000 H       1  UNL1        0.0464
     19 H           1.1895    0.5514    0.0000 H       1  UNL1        0.0281
     20 H           1.5886    1.3177    0.0000 H       1  UNL1        0.0281
     21 H           2.2372   -0.8253    0.0000 H       1  UNL1        0.0281
     22 H           1.4483   -0.4146    0.0000 H       1  UNL1        0.0281
     23 H           5.2207    1.5468    0.0000 H       1  UNL1        0.0316
     24 H           5.8300    1.0106    0.0000 H       1  UNL1        0.0316
     25 H           5.0681   -1.0623    0.0000 H       1  UNL1        0.0316
     26 H           4.2456   -1.0528    0.0000 H       1  UNL1        0.0316
     27 H           5.5669   -0.6498    0.0000 H       1  UNL1        0.0735
     28 H           3.8821    3.3966    0.0000 H       1  UNL1        0.0391
     29 H           4.7290    3.6235    0.0000 H       1  UNL1        0.0391
     30 H           4.9560    2.7766    0.0000 H       1  UNL1        0.0391
     31 H           7.9119   -0.5855    0.0000 H       1  UNL1        0.0280
     32 H           8.7853   -0.6620    0.0000 H       1  UNL1        0.0280
     33 H           8.7089   -1.5354    0.0000 H       1  UNL1        0.0280
     34 H           7.2430   -3.0866    0.0000 H       1  UNL1        0.0574
     35 H           8.8697   -2.4475    0.0000 H       1  UNL1        0.0272
     36 H           9.2403   -3.2422    0.0000 H       1  UNL1        0.0272
     37 H           8.4456   -3.6127    0.0000 H       1  UNL1        0.0272
@<TRIPOS>BOND
     1     1    10    1
     2     1    12    1
     3     2    12    2
     4     3     4    1
     5     3     5    1
     6     3    11    1
     7     4     6    1
     8     4     8    1
     9     4    17    1
    10     5     7    1
    11     5     9    1
    12     5    18    1
    13     6     7    1
    14     6    19    1
    15     6    20    1
    16     7    21    1
    17     7    22    1
    18     8    10    1
    19     8    23    1
    20     8    24    1
    21     9    10    1
    22     9    25    1
    23     9    26    1
    24    10    27    1
    25    11    28    1
    26    11    29    1
    27    11    30    1
    28    12    13    1
    29    13    14    1
    30    13    15    2
    31    14    31    1
    32    14    32    1
    33    14    33    1
    34    15    16    1
    35    15    34    1
    36    16    35    1
    37    16    36    1
    38    16    37    1
