@<TRIPOS>MOLECULE
IMPHY010797
 94 104 0 0 0
SMALL
GASTEIGER

@<TRIPOS>ATOM
      1 O          10.1357    4.7266    0.0000 O.3     1  UNL1       -0.3311
      2 O          11.9500    2.9488    0.0000 O.3     1  UNL1       -0.2203
      3 O          19.0608    7.8131    0.0000 O.co2   1  UNL1       -0.2457
      4 O          18.2064    6.3065    0.0000 O.co2   1  UNL1       -0.2457
      5 O           9.2755    6.2300    0.0000 O.3     1  UNL1       -0.3258
      6 O           8.3998    3.7333    0.0000 O.3     1  UNL1       -0.3231
      7 O           6.6716    4.7400    0.0000 O.3     1  UNL1       -0.2175
      8 O           6.6793    6.7400    0.0000 O.3     1  UNL1       -0.2176
      9 O           6.6678    3.7400    0.0000 O.3     1  UNL1       -0.3284
     10 O           8.3921    1.7333    0.0000 O.3     1  UNL1       -0.2150
     11 O           6.6562    0.7400    0.0000 O.3     1  UNL1       -0.3255
     12 O           4.9280    1.7467    0.0000 O.3     1  UNL1       -0.2178
     13 O           6.9504   -0.9669    0.0000 O.3     1  UNL1       -0.3259
     14 O           4.6853    0.4003    0.0000 O.3     1  UNL1       -0.2149
     15 O           3.9940   -1.4764    0.0000 O.3     1  UNL1       -0.2175
     16 O           5.2736   -3.0134    0.0000 O.3     1  UNL1       -0.3258
     17 O           5.5678   -4.7203    0.0000 O.3     1  UNL1       -0.3258
     18 O           7.2446   -2.6737    0.0000 O.3     1  UNL1       -0.3231
     19 O           8.5243   -4.2108    0.0000 O.3     1  UNL1       -0.2175
     20 O           7.8330   -6.0875    0.0000 O.3     1  UNL1       -0.2176
     21 O           8.8700   -3.2724    0.0000 O.3     1  UNL1       -0.3256
     22 O           4.8765   -6.5971    0.0000 O.3     1  UNL1       -0.3259
     23 O           7.9359   -0.7969    0.0000 O.3     1  UNL1       -0.2149
     24 O           9.9068   -0.4573    0.0000 O.3     1  UNL1       -0.2174
     25 O           5.1707   -8.3039    0.0000 O.3     1  UNL1       -0.3284
     26 O          11.1865   -1.9943    0.0000 O.3     1  UNL1       -0.2176
     27 O           2.9056   -6.9367    0.0000 O.3     1  UNL1       -0.2149
     28 O          11.4807   -3.7012    0.0000 O.3     1  UNL1       -0.2176
     29 O           2.2143   -8.8135    0.0000 O.3     1  UNL1       -0.2174
     30 O           3.4940  -10.3505    0.0000 O.3     1  UNL1       -0.2177
     31 C          14.6628    6.2790    0.0000 C.3     1  UNL1        0.0035
     32 C          13.7967    6.7790    0.0000 C.3     1  UNL1        0.0046
     33 C          12.8867    6.2721    0.0000 C.3     1  UNL1        0.0006
     34 C          15.5288    6.7790    0.0000 C.3     1  UNL1        0.0149
     35 C          12.8787    5.2305    0.0000 C.3     1  UNL1        0.0047
     36 C          14.6788    5.2375    0.0000 C.3     1  UNL1        0.0003
     37 C          11.9433    4.6808    0.0000 C.3     1  UNL1        0.0557
     38 C          13.7808    4.7097    0.0000 C.3     1  UNL1        0.0002
     39 C          15.5288    7.7790    0.0000 C.2     1  UNL1       -0.0489
     40 C          11.9599    6.8362    0.0000 C.3     1  UNL1        0.0025
     41 C          13.7967    7.7790    0.0000 C.3     1  UNL1        0.0254
     42 C          16.4227    8.3136    0.0000 C.3     1  UNL1        0.0281
     43 C          16.4227    6.2443    0.0000 C.3     1  UNL1        0.0043
     44 C          17.3288    7.7998    0.0000 C.3     1  UNL1        0.0972
     45 C          11.0036    5.2233    0.0000 C.3     1  UNL1        0.1202
     46 C          15.3055    5.5129    0.0000 C.3     1  UNL1        0.0003
     47 C          17.3288    6.7582    0.0000 C.3     1  UNL1        0.0113
     48 C          12.8944    7.2721    0.0000 C.3     1  UNL1        0.0000
     49 C          11.0120    6.3083    0.0000 C.3     1  UNL1        0.0297
     50 C          14.6628    8.2790    0.0000 C.2     1  UNL1       -0.0346
     51 C          15.8709    5.8393    0.0000 C.3     1  UNL1        0.0040
     52 C          16.3976    9.3983    0.0000 C.3     1  UNL1        0.0046
     53 C          18.2726    8.3350    0.0000 C.3     1  UNL1        0.0110
     54 C          17.3288    9.9553    0.0000 C.3     1  UNL1        0.0003
     55 C          11.4466    3.8129    0.0000 C.3     1  UNL1        0.1843
     56 C          12.4466    3.8167    0.0000 C.3     1  UNL1        0.0050
     57 C          18.2726    9.4200    0.0000 C.3     1  UNL1        0.0006
     58 C          18.1986    7.3065    0.0000 C.2     1  UNL1        0.3641
     59 C          17.8187   10.8270    0.0000 C.3     1  UNL1        0.0000
     60 C          16.8188   10.8154    0.0000 C.3     1  UNL1        0.0000
     61 C           9.2716    5.2300    0.0000 C.3     1  UNL1        0.2661
     62 C           8.4037    4.7333    0.0000 C.3     1  UNL1        0.2066
     63 C           7.5396    5.2367    0.0000 C.3     1  UNL1        0.2166
     64 C           8.4114    6.7333    0.0000 C.3     1  UNL1        0.1803
     65 C           7.5434    6.2366    0.0000 C.3     1  UNL1        0.2142
     66 C           7.5319    3.2367    0.0000 C.3     1  UNL1        0.2694
     67 C           7.5280    2.2367    0.0000 C.3     1  UNL1        0.2374
     68 C           6.6601    1.7400    0.0000 C.3     1  UNL1        0.1857
     69 C           5.7998    3.2433    0.0000 C.3     1  UNL1        0.1507
     70 C           5.7960    2.2434    0.0000 C.3     1  UNL1        0.2086
     71 C           4.9357    3.7467    0.0000 C.3     1  UNL1        0.0350
     72 C           6.3105   -0.1983    0.0000 C.3     1  UNL1        0.2695
     73 C           5.3251   -0.3682    0.0000 C.3     1  UNL1        0.2404
     74 C           4.9794   -1.3065    0.0000 C.3     1  UNL1        0.2167
     75 C           6.6048   -1.9052    0.0000 C.3     1  UNL1        0.1770
     76 C           5.6193   -2.0751    0.0000 C.3     1  UNL1        0.1803
     77 C           5.9135   -3.7820    0.0000 C.3     1  UNL1        0.2663
     78 C           6.8990   -3.6121    0.0000 C.3     1  UNL1        0.2066
     79 C           7.5388   -4.3806    0.0000 C.3     1  UNL1        0.2166
     80 C           6.2077   -5.4888    0.0000 C.3     1  UNL1        0.1802
     81 C           7.1932   -5.3190    0.0000 C.3     1  UNL1        0.2142
     82 C           5.8620   -6.4272    0.0000 C.3     1  UNL1        0.1770
     83 C           8.2301   -2.5039    0.0000 C.3     1  UNL1        0.2696
     84 C           8.5758   -1.5655    0.0000 C.3     1  UNL1        0.2406
     85 C           9.5612   -1.3957    0.0000 C.3     1  UNL1        0.2198
     86 C           9.8554   -3.1025    0.0000 C.3     1  UNL1        0.1835
     87 C          10.2010   -2.1642    0.0000 C.3     1  UNL1        0.2144
     88 C           4.5309   -7.5354    0.0000 C.3     1  UNL1        0.2695
     89 C           3.5454   -7.7053    0.0000 C.3     1  UNL1        0.2406
     90 C          10.4953   -3.8710    0.0000 C.3     1  UNL1        0.2142
     91 C           3.1998   -8.6436    0.0000 C.3     1  UNL1        0.2197
     92 C           4.8251   -9.2423    0.0000 C.3     1  UNL1        0.1508
     93 C           3.8396   -9.4122    0.0000 C.3     1  UNL1        0.2118
     94 C           5.4649  -10.0108    0.0000 C.3     1  UNL1        0.0350
@<TRIPOS>BOND
     1     2    55    1
     2     3    58   ar
     3     4    58   ar
     4     5    61    1
     5     5    64    1
     6     9    66    1
     7     9    69    1
     8    13    72    1
     9    13    75    1
    10    17    77    1
    11    17    80    1
    12    21    83    1
    13    21    86    1
    14    22    82    1
    15    25    88    1
    16    25    92    1
    17    28    90    1
    18    31    32    1
    19    31    34    1
    20    31    36    1
    21    31    46    1
    22    32    33    1
    23    32    41    1
    24    33    35    1
    25    33    40    1
    26    33    48    1
    27    34    39    1
    28    34    43    1
    29    34    51    1
    30    35    37    1
    31    35    38    1
    32    36    38    1
    33    37    45    1
    34    37    55    1
    35    37    56    1
    36    39    42    1
    37    39    50    2
    38    40    49    1
    39    41    50    1
    40    42    44    1
    41    42    52    1
    42    43    47    1
    43    44    47    1
    44    44    53    1
    45    44    58    1
    46    45     1    1
    47    45    49    1
    48    52    54    1
    49    53    57    1
    50    54    57    1
    51    54    59    1
    52    54    60    1
    53    61     1    1
    54    61    62    1
    55    62     6    1
    56    62    63    1
    57    63     7    1
    58    63    65    1
    59    64    65    1
    60    65     8    1
    61    66     6    1
    62    66    67    1
    63    67    10    1
    64    67    68    1
    65    68    11    1
    66    68    70    1
    67    69    70    1
    68    69    71    1
    69    70    12    1
    70    72    11    1
    71    72    73    1
    72    73    14    1
    73    73    74    1
    74    74    15    1
    75    74    76    1
    76    75    76    1
    77    76    16    1
    78    77    16    1
    79    77    78    1
    80    78    18    1
    81    78    79    1
    82    79    19    1
    83    79    81    1
    84    80    81    1
    85    80    82    1
    86    81    20    1
    87    83    18    1
    88    83    84    1
    89    84    23    1
    90    84    85    1
    91    85    24    1
    92    85    87    1
    93    86    87    1
    94    86    90    1
    95    87    26    1
    96    88    22    1
    97    88    89    1
    98    89    27    1
    99    89    91    1
   100    91    29    1
   101    91    93    1
   102    92    93    1
   103    92    94    1
   104    93    30    1
