@<TRIPOS>MOLECULE
IMPHY006314
 27 26 0 0 0
SMALL
GASTEIGER

@<TRIPOS>ATOM
      1 O           4.5981   -0.5950    0.0000 O.3     1  UNL1       -0.3912
      2 O           7.1962    0.9050    0.0000 O.3     1  UNL1       -0.4648
      3 O           6.3301   -0.5950    0.0000 O.2     1  UNL1       -0.2508
      4 C           4.5981    0.4050    0.0000 C.3     1  UNL1        0.0653
      5 C           3.7320    0.9050    0.0000 C.3     1  UNL1       -0.0266
      6 C           2.8660    0.4050    0.0000 C.3     1  UNL1       -0.0536
      7 C           5.4641    0.9050    0.0000 C.3     1  UNL1        0.0709
      8 C           2.0000    0.9050    0.0000 C.3     1  UNL1       -0.0652
      9 C           6.3301    0.4050    0.0000 C.2     1  UNL1        0.3096
     10 C           8.0622    0.4050    0.0000 C.3     1  UNL1        0.0896
     11 C           8.9282    0.9050    0.0000 C.3     1  UNL1       -0.0306
     12 H           5.3342   -0.0200    0.0000 H       1  UNL1        0.0598
     13 H           4.1306    1.3800    0.0000 H       1  UNL1        0.0290
     14 H           3.3335    1.3800    0.0000 H       1  UNL1        0.0290
     15 H           5.8626    1.3800    0.0000 H       1  UNL1        0.0403
     16 H           5.0656    1.3800    0.0000 H       1  UNL1        0.0403
     17 H           2.4675   -0.0699    0.0000 H       1  UNL1        0.0263
     18 H           3.2646   -0.0699    0.0000 H       1  UNL1        0.0263
     19 H           2.3100    1.4419    0.0000 H       1  UNL1        0.0230
     20 H           1.4631    1.2150    0.0000 H       1  UNL1        0.0230
     21 H           1.6900    0.3681    0.0000 H       1  UNL1        0.0230
     22 H           4.0611   -0.9050    0.0000 H       1  UNL1        0.2098
     23 H           7.6636   -0.0699    0.0000 H       1  UNL1        0.0694
     24 H           8.4607   -0.0699    0.0000 H       1  UNL1        0.0694
     25 H           9.2382    0.3681    0.0000 H       1  UNL1        0.0262
     26 H           9.4651    1.2150    0.0000 H       1  UNL1        0.0262
     27 H           8.6182    1.4419    0.0000 H       1  UNL1        0.0262
@<TRIPOS>BOND
     1     1     4    1
     2     1    22    1
     3     2     9    1
     4     2    10    1
     5     3     9    2
     6     4     5    1
     7     4     7    1
     8     4    12    1
     9     5     6    1
    10     5    13    1
    11     5    14    1
    12     6     8    1
    13     6    17    1
    14     6    18    1
    15     7     9    1
    16     7    15    1
    17     7    16    1
    18     8    19    1
    19     8    20    1
    20     8    21    1
    21    10    11    1
    22    10    23    1
    23    10    24    1
    24    11    25    1
    25    11    26    1
    26    11    27    1
