@<TRIPOS>MOLECULE
IMPHY005958
 102 109 0 0 0
SMALL
GASTEIGER

@<TRIPOS>ATOM
      1 O          12.5744    3.8432    0.0000 O.3     1  UNL1       -0.4910
      2 O           9.0346    3.8295    0.0000 O.3     1  UNL1       -0.4907
      3 O          10.8005    4.8673    0.0000 O.3     1  UNL1       -0.4885
      4 O           6.3923    0.2739    0.0000 O.3     1  UNL1       -0.4520
      5 O           6.3923    2.3222    0.0000 O.3     1  UNL1       -0.4914
      6 O           2.2306   -4.4692    0.0000 O.3     1  UNL1       -0.4522
      7 O           3.6366   -5.2524    0.0000 O.3     1  UNL1       -0.4489
      8 O           5.5627   -4.2508    0.0000 O.3     1  UNL1       -0.4913
      9 O           6.4077   -3.7260    0.0000 O.3     1  UNL1       -0.4914
     10 O           8.1359   -2.7194    0.0000 O.3     1  UNL1       -0.4913
     11 N          11.6467    0.3012    0.0000 N.3     1  UNL1       -0.2978
     12 N           2.8939   -0.7222    0.0000 N.3     1  UNL1       -0.2978
     13 C          10.7884    0.7981    0.0000 C.3     1  UNL1        0.0404
     14 C          10.7884    1.7981    0.0000 C.ar    1  UNL1       -0.0119
     15 C           9.9224    0.2981    0.0000 C.3     1  UNL1       -0.0072
     16 C          11.6984    2.3049    0.0000 C.ar    1  UNL1        0.0046
     17 C           9.9224    2.2981    0.0000 C.ar    1  UNL1        0.0330
     18 C          12.5121    0.7853    0.0000 C.3     1  UNL1        0.0033
     19 C          12.5378    1.7767    0.0000 C.3     1  UNL1       -0.0109
     20 C           9.0564    0.7981    0.0000 C.ar    1  UNL1       -0.0340
     21 C           9.0564    1.7981    0.0000 C.ar    1  UNL1       -0.0070
     22 C          11.7065    3.3465    0.0000 C.ar    1  UNL1        0.1687
     23 C           9.9064    3.3396    0.0000 C.ar    1  UNL1        0.1732
     24 C          11.6393   -0.6988    0.0000 C.3     1  UNL1       -0.0122
     25 C           3.8000   -1.2361    0.0000 C.3     1  UNL1        0.0399
     26 C          10.8044    3.8674    0.0000 C.ar    1  UNL1        0.2044
     27 C           8.1624    0.2634    0.0000 C.ar    1  UNL1       -0.0119
     28 C           8.1624    2.3328    0.0000 C.ar    1  UNL1       -0.0082
     29 C           3.8000   -2.2777    0.0000 C.ar    1  UNL1       -0.0196
     30 C           2.0000   -1.2569    0.0000 C.3     1  UNL1        0.0033
     31 C           2.9418   -2.7910    0.0000 C.ar    1  UNL1        0.0042
     32 C           4.6641   -0.7327    0.0000 C.3     1  UNL1       -0.0043
     33 C           2.0241   -2.2982    0.0000 C.3     1  UNL1       -0.0110
     34 C           7.2564    0.7773    0.0000 C.ar    1  UNL1        0.1701
     35 C           7.2564    1.8189    0.0000 C.ar    1  UNL1        0.1627
     36 C           5.5320   -1.2294    0.0000 C.ar    1  UNL1        0.0004
     37 C           2.9572   -3.7909    0.0000 C.ar    1  UNL1        0.1734
     38 C           4.6736   -2.7643    0.0000 C.ar    1  UNL1       -0.0111
     39 C           2.8824    0.2777    0.0000 C.3     1  UNL1       -0.0122
     40 C           6.3961   -0.7261    0.0000 C.ar    1  UNL1        0.1355
     41 C           3.8308   -4.2775    0.0000 C.ar    1  UNL1        0.2078
     42 C           4.6891   -3.7642    0.0000 C.ar    1  UNL1        0.1656
     43 C           5.5359   -2.2294    0.0000 C.ar    1  UNL1       -0.0096
     44 C          12.5783    4.8432    0.0000 C.3     1  UNL1        0.0790
     45 C           9.0230    4.8295    0.0000 C.3     1  UNL1        0.0790
     46 C           7.2641   -1.2227    0.0000 C.ar    1  UNL1        0.0263
     47 C           2.6496   -5.3707    0.0000 C.3     1  UNL1        0.2334
     48 C          11.6646    5.3707    0.0000 C.3     1  UNL1        0.0791
     49 C           6.4038   -2.7260    0.0000 C.ar    1  UNL1        0.1620
     50 C           7.2679   -2.2227    0.0000 C.ar    1  UNL1        0.1650
     51 C           6.3961    3.3222    0.0000 C.3     1  UNL1        0.0790
     52 C           5.5781   -5.2506    0.0000 C.3     1  UNL1        0.0790
     53 C           7.2756   -4.2227    0.0000 C.3     1  UNL1        0.0790
     54 C           9.0000   -2.2160    0.0000 C.3     1  UNL1        0.0790
     55 H          10.7879   -0.0519    0.0000 H       1  UNL1        0.0516
     56 H           9.5239   -0.1769    0.0000 H       1  UNL1        0.0332
     57 H          10.3209   -0.1769    0.0000 H       1  UNL1        0.0332
     58 H          12.7139    0.1991    0.0000 H       1  UNL1        0.0430
     59 H          13.1249    0.8797    0.0000 H       1  UNL1        0.0430
     60 H          13.1448    1.6508    0.0000 H       1  UNL1        0.0327
     61 H          12.7695    2.3518    0.0000 H       1  UNL1        0.0327
     62 H           3.7964   -0.6161    0.0000 H       1  UNL1        0.0515
     63 H          11.0193   -0.6942    0.0000 H       1  UNL1        0.0391
     64 H          11.6347   -1.3188    0.0000 H       1  UNL1        0.0391
     65 H          12.2592   -0.7034    0.0000 H       1  UNL1        0.0391
     66 H           8.1696   -0.3565    0.0000 H       1  UNL1        0.0658
     67 H           8.1696    2.9527    0.0000 H       1  UNL1        0.0661
     68 H           1.7775   -0.6782    0.0000 H       1  UNL1        0.0430
     69 H           1.3918   -1.3771    0.0000 H       1  UNL1        0.0430
     70 H           5.0608   -0.2563    0.0000 H       1  UNL1        0.0333
     71 H           4.2637   -0.2593    0.0000 H       1  UNL1        0.0333
     72 H           1.4109   -2.2063    0.0000 H       1  UNL1        0.0327
     73 H           1.8286   -2.8866    0.0000 H       1  UNL1        0.0327
     74 H           5.2057   -2.4460    0.0000 H       1  UNL1        0.0659
     75 H           3.5023    0.2849    0.0000 H       1  UNL1        0.0391
     76 H           2.8752    0.8977    0.0000 H       1  UNL1        0.0391
     77 H           2.2624    0.2705    0.0000 H       1  UNL1        0.0391
     78 H           5.0002   -2.5415    0.0000 H       1  UNL1        0.0659
     79 H          13.1983    4.8408    0.0000 H       1  UNL1        0.0660
     80 H          12.5807    5.4632    0.0000 H       1  UNL1        0.0660
     81 H          11.9583    4.8456    0.0000 H       1  UNL1        0.0660
     82 H           9.6430    4.8366    0.0000 H       1  UNL1        0.0660
     83 H           9.0159    5.4494    0.0000 H       1  UNL1        0.0660
     84 H           8.4031    4.8223    0.0000 H       1  UNL1        0.0660
     85 H           7.7998   -0.9106    0.0000 H       1  UNL1        0.0692
     86 H           2.0631   -5.5715    0.0000 H       1  UNL1        0.1166
     87 H           2.7877   -5.9751    0.0000 H       1  UNL1        0.1166
     88 H          11.9767    4.8349    0.0000 H       1  UNL1        0.0660
     89 H          12.2004    5.6827    0.0000 H       1  UNL1        0.0660
     90 H          11.3526    5.9064    0.0000 H       1  UNL1        0.0660
     91 H           7.0161    3.3198    0.0000 H       1  UNL1        0.0660
     92 H           6.3985    3.9422    0.0000 H       1  UNL1        0.0660
     93 H           5.7761    3.3246    0.0000 H       1  UNL1        0.0660
     94 H           4.9582   -5.2602    0.0000 H       1  UNL1        0.0660
     95 H           5.5877   -5.8706    0.0000 H       1  UNL1        0.0660
     96 H           6.1980   -5.2411    0.0000 H       1  UNL1        0.0660
     97 H           6.9677   -4.7608    0.0000 H       1  UNL1        0.0660
     98 H           7.8138   -4.5306    0.0000 H       1  UNL1        0.0660
     99 H           7.5836   -3.6846    0.0000 H       1  UNL1        0.0660
    100 H           9.3120   -2.7518    0.0000 H       1  UNL1        0.0660
    101 H           9.5357   -1.9040    0.0000 H       1  UNL1        0.0660
    102 H           8.6879   -1.6803    0.0000 H       1  UNL1        0.0660
@<TRIPOS>BOND
     1     1    22    1
     2     1    44    1
     3     2    23    1
     4     2    45    1
     5     3    26    1
     6     3    48    1
     7     4    34    1
     8     4    40    1
     9     5    35    1
    10     5    51    1
    11     6    37    1
    12     6    47    1
    13     7    41    1
    14     7    47    1
    15     8    42    1
    16     8    52    1
    17     9    49    1
    18     9    53    1
    19    10    50    1
    20    10    54    1
    21    11    13    1
    22    11    18    1
    23    11    24    1
    24    12    25    1
    25    12    30    1
    26    12    39    1
    27    13    14    1
    28    13    15    1
    29    13    55    1
    30    14    16   ar
    31    14    17   ar
    32    15    20    1
    33    15    56    1
    34    15    57    1
    35    16    19    1
    36    16    22   ar
    37    17    21    1
    38    17    23   ar
    39    18    19    1
    40    18    58    1
    41    18    59    1
    42    19    60    1
    43    19    61    1
    44    20    21   ar
    45    20    27   ar
    46    21    28   ar
    47    22    26   ar
    48    23    26   ar
    49    24    63    1
    50    24    64    1
    51    24    65    1
    52    25    29    1
    53    25    32    1
    54    25    62    1
    55    27    34   ar
    56    27    66    1
    57    28    35   ar
    58    28    67    1
    59    29    31   ar
    60    29    38   ar
    61    30    33    1
    62    30    68    1
    63    30    69    1
    64    31    33    1
    65    31    37   ar
    66    32    36    1
    67    32    70    1
    68    32    71    1
    69    33    72    1
    70    33    73    1
    71    34    35   ar
    72    36    40   ar
    73    36    43   ar
    74    37    41   ar
    75    38    42   ar
    76    38    74    1
    77    39    75    1
    78    39    76    1
    79    39    77    1
    80    40    46   ar
    81    41    42   ar
    82    43    49   ar
    83    43    78    1
    84    44    79    1
    85    44    80    1
    86    44    81    1
    87    45    82    1
    88    45    83    1
    89    45    84    1
    90    46    50   ar
    91    46    85    1
    92    47    86    1
    93    47    87    1
    94    48    88    1
    95    48    89    1
    96    48    90    1
    97    49    50   ar
    98    51    91    1
    99    51    92    1
   100    51    93    1
   101    52    94    1
   102    52    95    1
   103    52    96    1
   104    53    97    1
   105    53    98    1
   106    53    99    1
   107    54   100    1
   108    54   101    1
   109    54   102    1
