@<TRIPOS>MOLECULE
IMPHY005660
 139 146 0 0 0
SMALL
GASTEIGER

@<TRIPOS>ATOM
      1 O           7.8620    3.3522    0.0000 O.3     1  UNL1       -0.3449
      2 O           6.0010   -5.9063    0.0000 O.3     1  UNL1       -0.4318
      3 O           5.1350   -4.4063    0.0000 O.2     1  UNL1       -0.2501
      4 O           9.5940    3.3322    0.0000 O.3     1  UNL1       -0.3315
      5 O           4.2690   -5.9063    0.0000 O.3     1  UNL1       -0.3312
      6 O           7.8852    5.3521    0.0000 O.3     1  UNL1       -0.3841
      7 O           9.6286    6.3320    0.0000 O.3     1  UNL1       -0.3864
      8 O          11.3490    5.3120    0.0000 O.3     1  UNL1       -0.3396
      9 O           6.0010   -7.9063    0.0000 O.3     1  UNL1       -0.3829
     10 O           4.2690   -8.9063    0.0000 O.3     1  UNL1       -0.3864
     11 O           2.5369   -7.9063    0.0000 O.3     1  UNL1       -0.3865
     12 O          12.1976    3.8021    0.0000 O.3     1  UNL1       -0.4788
     13 O          11.3143    2.3122    0.0000 O.2     1  UNL1       -0.2480
     14 O          10.5584    6.9090    0.0000 O.3     1  UNL1       -0.3405
     15 O           2.5369   -4.9063    0.0000 O.3     1  UNL1       -0.3924
     16 O          13.1238    6.5703    0.0000 O.3     1  UNL1       -0.3841
     17 O          12.4754    8.6471    0.0000 O.3     1  UNL1       -0.3864
     18 O           9.3044    8.5792    0.0000 O.3     1  UNL1       -0.3924
     19 C           6.9067   -1.3373    0.0000 C.3     1  UNL1       -0.0194
     20 C           7.7765   -0.8440    0.0000 C.3     1  UNL1       -0.0257
     21 C           7.8006    0.1974    0.0000 C.3     1  UNL1       -0.0250
     22 C           6.8990   -2.3373    0.0000 C.3     1  UNL1       -0.0051
     23 C           6.9067    0.7320    0.0000 C.3     1  UNL1       -0.0278
     24 C           6.0006   -0.8234    0.0000 C.3     1  UNL1       -0.0463
     25 C           6.9067    1.8170    0.0000 C.3     1  UNL1       -0.0052
     26 C           6.0006    0.2182    0.0000 C.3     1  UNL1       -0.0486
     27 C           7.7611   -2.8439    0.0000 C.2     1  UNL1       -0.0629
     28 C           7.7691   -3.8855    0.0000 C.3     1  UNL1       -0.0031
     29 C           8.6387   -1.3506    0.0000 C.3     1  UNL1       -0.0306
     30 C           8.7565    0.7106    0.0000 C.3     1  UNL1       -0.0447
     31 C           5.9851   -2.8371    0.0000 C.3     1  UNL1       -0.0424
     32 C           6.8671   -4.4063    0.0000 C.3     1  UNL1        0.0744
     33 C           5.9206   -1.5033    0.0000 C.3     1  UNL1       -0.0585
     34 C           7.8505    2.3523    0.0000 C.3     1  UNL1        0.0672
     35 C           5.9690   -3.8786    0.0000 C.3     1  UNL1       -0.0359
     36 C           8.6588   -0.3159    0.0000 C.3     1  UNL1       -0.0590
     37 C           8.6310   -2.3506    0.0000 C.2     1  UNL1       -0.0836
     38 C           8.7816    1.7953    0.0000 C.3     1  UNL1       -0.0255
     39 C           5.9155   -2.1560    0.0000 C.3     1  UNL1       -0.0553
     40 C           8.7170   -4.4135    0.0000 C.3     1  UNL1       -0.0403
     41 C           6.8503   -5.4912    0.0000 C.3     1  UNL1       -0.0362
     42 C           8.7254   -5.4984    0.0000 C.3     1  UNL1       -0.0343
     43 C           6.4100    2.6850    0.0000 C.3     1  UNL1       -0.0572
     44 C           5.9067    1.8209    0.0000 C.3     1  UNL1       -0.0572
     45 C           7.7858   -6.0409    0.0000 C.3     1  UNL1       -0.0468
     46 C           6.0010   -4.9063    0.0000 C.2     1  UNL1        0.3161
     47 C           9.7254   -5.4946    0.0000 C.3     1  UNL1       -0.0598
     48 C           9.2287   -6.3625    0.0000 C.3     1  UNL1       -0.0598
     49 C           8.7338    3.8422    0.0000 C.3     1  UNL1        0.1888
     50 C           8.7453    4.8421    0.0000 C.3     1  UNL1        0.1342
     51 C           5.1350   -6.4063    0.0000 C.3     1  UNL1        0.2337
     52 C           9.6171    5.3320    0.0000 C.3     1  UNL1        0.1149
     53 C          10.4657    3.8221    0.0000 C.3     1  UNL1        0.1863
     54 C          10.4773    4.8220    0.0000 C.3     1  UNL1        0.1267
     55 C           5.1350   -7.4063    0.0000 C.3     1  UNL1        0.1455
     56 C           4.2690   -7.9063    0.0000 C.3     1  UNL1        0.1152
     57 C           3.4030   -6.4063    0.0000 C.3     1  UNL1        0.1140
     58 C           3.4030   -7.4063    0.0000 C.3     1  UNL1        0.1120
     59 C          11.3259    3.3121    0.0000 C.2     1  UNL1        0.3367
     60 C           2.5369   -5.9063    0.0000 C.3     1  UNL1        0.0731
     61 C          11.3606    6.3119    0.0000 C.3     1  UNL1        0.1885
     62 C          12.1763    6.8903    0.0000 C.3     1  UNL1        0.1341
     63 C          11.8783    7.8449    0.0000 C.3     1  UNL1        0.1141
     64 C          10.8784    7.8565    0.0000 C.3     1  UNL1        0.1131
     65 C          10.3000    8.6722    0.0000 C.3     1  UNL1        0.0730
     66 H           8.3182   -0.5423    0.0000 H       1  UNL1        0.0315
     67 H           6.3709    1.0441    0.0000 H       1  UNL1        0.0312
     68 H           5.3898   -0.7174    0.0000 H       1  UNL1        0.0271
     69 H           5.7916   -1.4071    0.0000 H       1  UNL1        0.0271
     70 H           5.7916    0.8019    0.0000 H       1  UNL1        0.0268
     71 H           5.3898    0.1121    0.0000 H       1  UNL1        0.0268
     72 H           8.5003   -3.4520    0.0000 H       1  UNL1        0.0357
     73 H           9.2484   -1.4630    0.0000 H       1  UNL1        0.0310
     74 H           8.8552   -0.7697    0.0000 H       1  UNL1        0.0310
     75 H           8.9520    0.1223    0.0000 H       1  UNL1        0.0271
     76 H           9.3697    0.8026    0.0000 H       1  UNL1        0.0271
     77 H           5.7850   -2.2502    0.0000 H       1  UNL1        0.0274
     78 H           5.3727   -2.9337    0.0000 H       1  UNL1        0.0274
     79 H           5.8176   -0.8919    0.0000 H       1  UNL1        0.0235
     80 H           5.3092   -1.6062    0.0000 H       1  UNL1        0.0235
     81 H           6.0235   -2.1147    0.0000 H       1  UNL1        0.0235
     82 H           7.3165    2.6674    0.0000 H       1  UNL1        0.0602
     83 H           5.3599   -3.7631    0.0000 H       1  UNL1        0.0276
     84 H           5.7510   -4.4590    0.0000 H       1  UNL1        0.0276
     85 H           8.3406   -0.8480    0.0000 H       1  UNL1        0.0235
     86 H           9.1909   -0.6342    0.0000 H       1  UNL1        0.0235
     87 H           8.9771    0.2162    0.0000 H       1  UNL1        0.0235
     88 H           9.1655   -2.6647    0.0000 H       1  UNL1        0.0572
     89 H           9.3899    1.6752    0.0000 H       1  UNL1        0.0290
     90 H           9.0041    2.3740    0.0000 H       1  UNL1        0.0290
     91 H           6.0279   -1.5463    0.0000 H       1  UNL1        0.0238
     92 H           5.3058   -2.0437    0.0000 H       1  UNL1        0.0238
     93 H           5.8032   -2.7658    0.0000 H       1  UNL1        0.0238
     94 H           9.3287   -4.5148    0.0000 H       1  UNL1        0.0276
     95 H           8.9216   -3.8282    0.0000 H       1  UNL1        0.0276
     96 H           6.2412   -5.3757    0.0000 H       1  UNL1        0.0276
     97 H           6.6323   -6.0716    0.0000 H       1  UNL1        0.0276
     98 H           6.9481    2.9929    0.0000 H       1  UNL1        0.0236
     99 H           6.1021    3.2231    0.0000 H       1  UNL1        0.0236
    100 H           5.8719    2.3770    0.0000 H       1  UNL1        0.0236
    101 H           5.9091    2.4409    0.0000 H       1  UNL1        0.0236
    102 H           5.2867    1.8233    0.0000 H       1  UNL1        0.0236
    103 H           5.9043    1.2009    0.0000 H       1  UNL1        0.0236
    104 H           7.3848   -6.5138    0.0000 H       1  UNL1        0.0271
    105 H           8.1831   -6.5169    0.0000 H       1  UNL1        0.0271
    106 H           9.7278   -6.1146    0.0000 H       1  UNL1        0.0235
    107 H          10.3454   -5.4922    0.0000 H       1  UNL1        0.0235
    108 H           9.7230   -4.8746    0.0000 H       1  UNL1        0.0235
    109 H           8.6930   -6.6746    0.0000 H       1  UNL1        0.0235
    110 H           9.5408   -6.8983    0.0000 H       1  UNL1        0.0235
    111 H           9.7645   -6.0505    0.0000 H       1  UNL1        0.0235
    112 H           8.7266    3.2222    0.0000 H       1  UNL1        0.0938
    113 H           8.7525    5.4620    0.0000 H       1  UNL1        0.0671
    114 H           5.1350   -5.7863    0.0000 H       1  UNL1        0.1085
    115 H          10.1576    5.6358    0.0000 H       1  UNL1        0.0648
    116 H          10.4585    3.2022    0.0000 H       1  UNL1        0.0742
    117 H          11.0106    4.5059    0.0000 H       1  UNL1        0.0655
    118 H           5.1350   -8.0263    0.0000 H       1  UNL1        0.0683
    119 H           7.3447    5.0483    0.0000 H       1  UNL1        0.2101
    120 H           3.7320   -8.2163    0.0000 H       1  UNL1        0.0648
    121 H           3.4030   -5.7863    0.0000 H       1  UNL1        0.0647
    122 H           3.4030   -8.0263    0.0000 H       1  UNL1        0.0647
    123 H           9.0953    6.6482    0.0000 H       1  UNL1        0.2100
    124 H           6.5380   -7.5963    0.0000 H       1  UNL1        0.2102
    125 H           1.9264   -5.7987    0.0000 H       1  UNL1        0.0584
    126 H           2.3249   -6.4890    0.0000 H       1  UNL1        0.0584
    127 H          11.9097    6.0241    0.0000 H       1  UNL1        0.0938
    128 H           3.7320   -9.2163    0.0000 H       1  UNL1        0.2100
    129 H           2.0000   -7.5963    0.0000 H       1  UNL1        0.2100
    130 H          12.6198    7.3236    0.0000 H       1  UNL1        0.0671
    131 H          12.7310    3.4859    0.0000 H       1  UNL1        0.2951
    132 H          11.6033    8.4005    0.0000 H       1  UNL1        0.0648
    133 H          10.2650    7.7666    0.0000 H       1  UNL1        0.0647
    134 H           2.0000   -4.5963    0.0000 H       1  UNL1        0.2095
    135 H          13.5893    6.9798    0.0000 H       1  UNL1        0.2101
    136 H          10.8604    8.9376    0.0000 H       1  UNL1        0.0584
    137 H          10.1360    9.2701    0.0000 H       1  UNL1        0.0584
    138 H          12.2298    9.2163    0.0000 H       1  UNL1        0.2100
    139 H           8.9458    9.0850    0.0000 H       1  UNL1        0.2095
@<TRIPOS>BOND
     1     1    34    1
     2    49     1    1
     3     2    46    1
     4    51     2    1
     5     3    46    2
     6     4    49    1
     7     4    53    1
     8     5    51    1
     9     5    57    1
    10    50     6    1
    11     6   119    1
    12    52     7    1
    13     7   123    1
    14    54     8    1
    15    61     8    1
    16    55     9    1
    17     9   124    1
    18    56    10    1
    19    10   128    1
    20    58    11    1
    21    11   129    1
    22    12    59    1
    23    12   131    1
    24    13    59    2
    25    14    61    1
    26    14    64    1
    27    15    60    1
    28    15   134    1
    29    62    16    1
    30    16   135    1
    31    63    17    1
    32    17   138    1
    33    18    65    1
    34    18   139    1
    35    19    20    1
    36    19    22    1
    37    19    24    1
    38    19    33    1
    39    20    21    1
    40    20    29    1
    41    20    66    1
    42    21    23    1
    43    21    30    1
    44    21    36    1
    45    22    27    1
    46    22    31    1
    47    22    39    1
    48    23    25    1
    49    23    26    1
    50    23    67    1
    51    24    26    1
    52    24    68    1
    53    24    69    1
    54    25    34    1
    55    25    43    1
    56    25    44    1
    57    26    70    1
    58    26    71    1
    59    27    28    1
    60    27    37    2
    61    28    32    1
    62    28    40    1
    63    28    72    1
    64    29    37    1
    65    29    73    1
    66    29    74    1
    67    30    38    1
    68    30    75    1
    69    30    76    1
    70    31    35    1
    71    31    77    1
    72    31    78    1
    73    32    35    1
    74    32    41    1
    75    32    46    1
    76    33    79    1
    77    33    80    1
    78    33    81    1
    79    34    38    1
    80    34    82    1
    81    35    83    1
    82    35    84    1
    83    36    85    1
    84    36    86    1
    85    36    87    1
    86    37    88    1
    87    38    89    1
    88    38    90    1
    89    39    91    1
    90    39    92    1
    91    39    93    1
    92    40    42    1
    93    40    94    1
    94    40    95    1
    95    41    45    1
    96    41    96    1
    97    41    97    1
    98    42    45    1
    99    42    47    1
   100    42    48    1
   101    43    98    1
   102    43    99    1
   103    43   100    1
   104    44   101    1
   105    44   102    1
   106    44   103    1
   107    45   104    1
   108    45   105    1
   109    47   106    1
   110    47   107    1
   111    47   108    1
   112    48   109    1
   113    48   110    1
   114    48   111    1
   115    49    50    1
   116    49   112    1
   117    50    52    1
   118    50   113    1
   119    51    55    1
   120    51   114    1
   121    52    54    1
   122    52   115    1
   123    53    54    1
   124    53    59    1
   125    53   116    1
   126    54   117    1
   127    55    56    1
   128    55   118    1
   129    56    58    1
   130    56   120    1
   131    57    58    1
   132    57    60    1
   133    57   121    1
   134    58   122    1
   135    60   125    1
   136    60   126    1
   137    61    62    1
   138    61   127    1
   139    62    63    1
   140    62   130    1
   141    63    64    1
   142    63   132    1
   143    64    65    1
   144    64   133    1
   145    65   136    1
   146    65   137    1
