@<TRIPOS>MOLECULE
IMPHY004620
 94 95 0 0 0
SMALL
GASTEIGER

@<TRIPOS>ATOM
      1 O          13.3923    9.2500    0.0000 O.2     1  UNL1       -0.2924
      2 O           5.5981   -9.2500    0.0000 O.2     1  UNL1       -0.2924
      3 C           3.0000   -7.7500    0.0000 C.3     1  UNL1       -0.0091
      4 C          10.7942    7.7500    0.0000 C.3     1  UNL1       -0.0091
      5 C           3.0000   -8.7500    0.0000 C.3     1  UNL1       -0.0369
      6 C          10.7942    8.7500    0.0000 C.3     1  UNL1       -0.0369
      7 C          11.6603    7.2500    0.0000 C.2     1  UNL1       -0.0355
      8 C           3.8660   -7.2500    0.0000 C.2     1  UNL1       -0.0355
      9 C          11.6603    9.2500    0.0000 C.3     1  UNL1        0.0109
     10 C           3.8660   -9.2500    0.0000 C.3     1  UNL1        0.0109
     11 C           2.0000   -7.7500    0.0000 C.3     1  UNL1       -0.0558
     12 C           2.5000   -6.8840    0.0000 C.3     1  UNL1       -0.0558
     13 C           9.7942    7.7500    0.0000 C.3     1  UNL1       -0.0558
     14 C          10.2942    6.8840    0.0000 C.3     1  UNL1       -0.0558
     15 C          12.5263    7.7500    0.0000 C.2     1  UNL1       -0.0044
     16 C           4.7320   -7.7500    0.0000 C.2     1  UNL1       -0.0044
     17 C           4.7320   -8.7500    0.0000 C.2     1  UNL1        0.1593
     18 C          12.5263    8.7500    0.0000 C.2     1  UNL1        0.1593
     19 C           3.8660   -6.2500    0.0000 C.2     1  UNL1       -0.0575
     20 C          11.6603    6.2500    0.0000 C.2     1  UNL1       -0.0575
     21 C          13.3923    7.2500    0.0000 C.3     1  UNL1       -0.0361
     22 C           5.5981   -7.2500    0.0000 C.3     1  UNL1       -0.0361
     23 C           4.7320   -5.7500    0.0000 C.2     1  UNL1       -0.0586
     24 C          10.7942    5.7500    0.0000 C.2     1  UNL1       -0.0586
     25 C           4.7320   -4.7500    0.0000 C.2     1  UNL1       -0.0504
     26 C          10.7942    4.7500    0.0000 C.2     1  UNL1       -0.0504
     27 C          11.6603    4.2500    0.0000 C.3     1  UNL1       -0.0397
     28 C           3.8660   -4.2500    0.0000 C.3     1  UNL1       -0.0397
     29 C           9.9282    4.2500    0.0000 C.2     1  UNL1       -0.0588
     30 C           5.5981   -4.2500    0.0000 C.2     1  UNL1       -0.0588
     31 C           9.9282    3.2500    0.0000 C.2     1  UNL1       -0.0613
     32 C           5.5981   -3.2500    0.0000 C.2     1  UNL1       -0.0613
     33 C           9.0622    2.7500    0.0000 C.2     1  UNL1       -0.0588
     34 C           6.4641   -2.7500    0.0000 C.2     1  UNL1       -0.0588
     35 C           6.4641   -1.7500    0.0000 C.2     1  UNL1       -0.0504
     36 C           9.0622    1.7500    0.0000 C.2     1  UNL1       -0.0504
     37 C           8.1962    1.2500    0.0000 C.2     1  UNL1       -0.0588
     38 C           7.3301   -1.2500    0.0000 C.2     1  UNL1       -0.0588
     39 C           5.5981   -1.2500    0.0000 C.3     1  UNL1       -0.0397
     40 C           9.9282    1.2500    0.0000 C.3     1  UNL1       -0.0397
     41 C           7.3301   -0.2500    0.0000 C.2     1  UNL1       -0.0615
     42 C           8.1962    0.2500    0.0000 C.2     1  UNL1       -0.0615
     43 H          10.5822    9.3326    0.0000 H       1  UNL1        0.0278
     44 H          10.1836    8.6423    0.0000 H       1  UNL1        0.0278
     45 H           2.3894   -8.6423    0.0000 H       1  UNL1        0.0278
     46 H           2.7880   -9.3326    0.0000 H       1  UNL1        0.0278
     47 H           3.4675   -9.7250    0.0000 H       1  UNL1        0.0345
     48 H           4.2646   -9.7250    0.0000 H       1  UNL1        0.0345
     49 H          12.0588    9.7250    0.0000 H       1  UNL1        0.0345
     50 H          11.2617    9.7250    0.0000 H       1  UNL1        0.0345
     51 H           2.0000   -7.1300    0.0000 H       1  UNL1        0.0238
     52 H           1.3800   -7.7500    0.0000 H       1  UNL1        0.0238
     53 H           2.0000   -8.3700    0.0000 H       1  UNL1        0.0238
     54 H           3.0369   -6.5740    0.0000 H       1  UNL1        0.0238
     55 H           2.1900   -6.3470    0.0000 H       1  UNL1        0.0238
     56 H           1.9631   -7.1940    0.0000 H       1  UNL1        0.0238
     57 H           9.7942    8.3700    0.0000 H       1  UNL1        0.0238
     58 H           9.1742    7.7500    0.0000 H       1  UNL1        0.0238
     59 H           9.7942    7.1300    0.0000 H       1  UNL1        0.0238
     60 H           9.7573    7.1940    0.0000 H       1  UNL1        0.0238
     61 H           9.9842    6.3470    0.0000 H       1  UNL1        0.0238
     62 H          10.8312    6.5740    0.0000 H       1  UNL1        0.0238
     63 H          12.1972    5.9400    0.0000 H       1  UNL1        0.0621
     64 H           3.3291   -5.9400    0.0000 H       1  UNL1        0.0621
     65 H          13.0823    6.7131    0.0000 H       1  UNL1        0.0279
     66 H           5.9081   -7.7869    0.0000 H       1  UNL1        0.0279
     67 H           6.1350   -6.9400    0.0000 H       1  UNL1        0.0279
     68 H           5.2881   -6.7131    0.0000 H       1  UNL1        0.0279
     69 H          13.9292    6.9400    0.0000 H       1  UNL1        0.0279
     70 H          13.7023    7.7869    0.0000 H       1  UNL1        0.0279
     71 H          10.2573    6.0600    0.0000 H       1  UNL1        0.0620
     72 H           5.2690   -6.0600    0.0000 H       1  UNL1        0.0620
     73 H           4.1760   -3.7131    0.0000 H       1  UNL1        0.0278
     74 H          11.3503    3.7131    0.0000 H       1  UNL1        0.0278
     75 H          12.1972    3.9400    0.0000 H       1  UNL1        0.0278
     76 H          11.9703    4.7869    0.0000 H       1  UNL1        0.0278
     77 H           3.3291   -3.9400    0.0000 H       1  UNL1        0.0278
     78 H           3.5560   -4.7869    0.0000 H       1  UNL1        0.0278
     79 H           9.3913    4.5600    0.0000 H       1  UNL1        0.0620
     80 H           6.1350   -4.5600    0.0000 H       1  UNL1        0.0620
     81 H          10.4651    2.9400    0.0000 H       1  UNL1        0.0618
     82 H           5.0611   -2.9400    0.0000 H       1  UNL1        0.0618
     83 H           8.5252    3.0600    0.0000 H       1  UNL1        0.0620
     84 H           7.0010   -3.0600    0.0000 H       1  UNL1        0.0620
     85 H           7.8671   -1.5600    0.0000 H       1  UNL1        0.0620
     86 H           7.6592    1.5600    0.0000 H       1  UNL1        0.0620
     87 H           9.6182    0.7131    0.0000 H       1  UNL1        0.0278
     88 H           5.9081   -0.7131    0.0000 H       1  UNL1        0.0278
     89 H           5.0611   -0.9400    0.0000 H       1  UNL1        0.0278
     90 H           5.2881   -1.7869    0.0000 H       1  UNL1        0.0278
     91 H          10.4651    0.9400    0.0000 H       1  UNL1        0.0278
     92 H          10.2382    1.7869    0.0000 H       1  UNL1        0.0278
     93 H           6.7932    0.0600    0.0000 H       1  UNL1        0.0618
     94 H           8.7331   -0.0600    0.0000 H       1  UNL1        0.0618
@<TRIPOS>BOND
     1     1    18    2
     2     2    17    2
     3     3     5    1
     4     3     8    1
     5     3    11    1
     6     3    12    1
     7     4     6    1
     8     4     7    1
     9     4    13    1
    10     4    14    1
    11     5    10    1
    12     5    45    1
    13     5    46    1
    14     6     9    1
    15     6    43    1
    16     6    44    1
    17     7    15    2
    18     7    20    1
    19     8    16    2
    20     8    19    1
    21     9    18    1
    22     9    49    1
    23     9    50    1
    24    10    17    1
    25    10    47    1
    26    10    48    1
    27    11    51    1
    28    11    52    1
    29    11    53    1
    30    12    54    1
    31    12    55    1
    32    12    56    1
    33    13    57    1
    34    13    58    1
    35    13    59    1
    36    14    60    1
    37    14    61    1
    38    14    62    1
    39    15    18    1
    40    15    21    1
    41    16    17    1
    42    16    22    1
    43    19    23    2
    44    19    64    1
    45    20    24    2
    46    20    63    1
    47    21    65    1
    48    21    69    1
    49    21    70    1
    50    22    66    1
    51    22    67    1
    52    22    68    1
    53    23    25    1
    54    23    72    1
    55    24    26    1
    56    24    71    1
    57    25    28    1
    58    25    30    2
    59    26    27    1
    60    26    29    2
    61    27    74    1
    62    27    75    1
    63    27    76    1
    64    28    73    1
    65    28    77    1
    66    28    78    1
    67    29    31    1
    68    29    79    1
    69    30    32    1
    70    30    80    1
    71    31    33    2
    72    31    81    1
    73    32    34    2
    74    32    82    1
    75    33    36    1
    76    33    83    1
    77    34    35    1
    78    34    84    1
    79    35    38    2
    80    35    39    1
    81    36    37    2
    82    36    40    1
    83    37    42    1
    84    37    86    1
    85    38    41    1
    86    38    85    1
    87    39    88    1
    88    39    89    1
    89    39    90    1
    90    40    87    1
    91    40    91    1
    92    40    92    1
    93    41    42    2
    94    41    93    1
    95    42    94    1
