@<TRIPOS>MOLECULE
IMPHY013943
 28 30 0 0 0
SMALL
GASTEIGER

@<TRIPOS>ATOM
      1 O           2.8680    0.7568    0.0000 O.2     1  UNL1       -0.4911
      2 O           4.6497    1.7673    0.0000 O.2     1  UNL1       -0.2833
      3 O           4.6497   -2.3019    0.0000 O.2     1  UNL1       -0.2871
      4 C           5.5320    0.2327    0.0000 C.ar    1  UNL1        0.0438
      5 C           6.3981    0.7327    0.0000 C.ar    1  UNL1       -0.0063
      6 C           5.5320   -0.7673    0.0000 C.ar    1  UNL1        0.0333
      7 C           7.2641    0.2327    0.0000 C.ar    1  UNL1       -0.0172
      8 C           4.6381    0.7673    0.0000 C.2     1  UNL1        0.2287
      9 C           6.3981   -1.2673    0.0000 C.ar    1  UNL1       -0.0497
     10 C           7.2641   -0.7673    0.0000 C.ar    1  UNL1       -0.0533
     11 C           4.6381   -1.3020    0.0000 C.2     1  UNL1        0.1903
     12 C           6.3820    1.7742    0.0000 C.ar    1  UNL1       -0.0533
     13 C           3.7320    0.2535    0.0000 C.2     1  UNL1        0.1708
     14 C           8.1741    0.7395    0.0000 C.ar    1  UNL1       -0.0540
     15 C           3.7320   -0.7881    0.0000 C.2     1  UNL1        0.0312
     16 C           7.2800    2.3019    0.0000 C.ar    1  UNL1       -0.0611
     17 C           8.1821    1.7811    0.0000 C.ar    1  UNL1       -0.0612
     18 C           2.0000    0.2602    0.0000 C.3     1  UNL1        0.0790
     19 H           6.3981   -1.8873    0.0000 H       1  UNL1        0.0625
     20 H           7.8010   -1.0773    0.0000 H       1  UNL1        0.0624
     21 H           5.8415    2.0779    0.0000 H       1  UNL1        0.0624
     22 H           8.7074    0.4233    0.0000 H       1  UNL1        0.0624
     23 H           3.1963   -1.1002    0.0000 H       1  UNL1        0.0694
     24 H           7.2777    2.9219    0.0000 H       1  UNL1        0.0618
     25 H           8.7203    2.0890    0.0000 H       1  UNL1        0.0618
     26 H           1.6921    0.7983    0.0000 H       1  UNL1        0.0660
     27 H           1.4619   -0.0478    0.0000 H       1  UNL1        0.0660
     28 H           2.3079   -0.2780    0.0000 H       1  UNL1        0.0660
@<TRIPOS>BOND
     1     1    13    1
     2     1    18    1
     3     2     8    2
     4     3    11    2
     5     4     5   ar
     6     4     6   ar
     7     4     8    1
     8     5     7   ar
     9     5    12   ar
    10     6     9   ar
    11     6    11    1
    12     7    10   ar
    13     7    14   ar
    14     8    13    1
    15     9    10   ar
    16     9    19    1
    17    10    20    1
    18    11    15    1
    19    12    16   ar
    20    12    21    1
    21    13    15    2
    22    14    17   ar
    23    14    22    1
    24    15    23    1
    25    16    17   ar
    26    16    24    1
    27    17    25    1
    28    18    26    1
    29    18    27    1
    30    18    28    1
