@<TRIPOS>MOLECULE
IMPHY008411
 62 65 0 0 0
SMALL
GASTEIGER

@<TRIPOS>ATOM
      1 O           4.6557   -0.0018    0.0000 O.3     1  UNL1       -0.3712
      2 O           7.7244   -0.0018    0.0000 O.3     1  UNL1       -0.3712
      3 O           2.6691    3.1252    0.0000 O.3     1  UNL1       -0.4913
      4 O           9.7191   -3.1200    0.0000 O.3     1  UNL1       -0.4913
      5 O           5.9637    4.1956    0.0000 O.3     1  UNL1       -0.4913
      6 O           6.4264   -4.1962    0.0000 O.3     1  UNL1       -0.4913
      7 O           4.0074    4.6114    0.0000 O.3     1  UNL1       -0.4885
      8 O           8.3834   -4.6086    0.0000 O.3     1  UNL1       -0.4885
      9 C           6.1945   -0.5018    0.0000 C.3     1  UNL1        0.0205
     10 C           6.1945    0.4982    0.0000 C.3     1  UNL1        0.0205
     11 C           5.2435    0.8072    0.0000 C.3     1  UNL1        0.0892
     12 C           7.1407   -0.8065    0.0000 C.3     1  UNL1        0.0892
     13 C           7.1407    0.8029    0.0000 C.3     1  UNL1        0.0544
     14 C           5.2435   -0.8108    0.0000 C.3     1  UNL1        0.0544
     15 C           4.9344    1.7583    0.0000 C.ar    1  UNL1       -0.0114
     16 C           7.4514   -1.7570    0.0000 C.ar    1  UNL1       -0.0114
     17 C           5.6036    2.5014    0.0000 C.ar    1  UNL1       -0.0104
     18 C           6.7836   -2.5013    0.0000 C.ar    1  UNL1       -0.0104
     19 C           3.9563    1.9662    0.0000 C.ar    1  UNL1       -0.0104
     20 C           8.4299   -1.9633    0.0000 C.ar    1  UNL1       -0.0104
     21 C           3.6473    2.9172    0.0000 C.ar    1  UNL1        0.1655
     22 C           8.7406   -2.9138    0.0000 C.ar    1  UNL1        0.1655
     23 C           5.2946    3.4525    0.0000 C.ar    1  UNL1        0.1655
     24 C           7.0942   -3.4519    0.0000 C.ar    1  UNL1        0.1655
     25 C           4.3164    3.6604    0.0000 C.ar    1  UNL1        0.2035
     26 C           8.0727   -3.6581    0.0000 C.ar    1  UNL1        0.2035
     27 C           2.0000    2.3820    0.0000 C.3     1  UNL1        0.0790
     28 C          10.3869   -2.3757    0.0000 C.3     1  UNL1        0.0790
     29 C           5.6547    5.1467    0.0000 C.3     1  UNL1        0.0790
     30 C           6.7370   -5.1467    0.0000 C.3     1  UNL1        0.0790
     31 C           3.0292    4.8194    0.0000 C.3     1  UNL1        0.0791
     32 C           9.3619   -4.8148    0.0000 C.3     1  UNL1        0.0791
     33 H           6.1956    1.3482    0.0000 H       1  UNL1        0.0356
     34 H           6.1956   -1.3518    0.0000 H       1  UNL1        0.0356
     35 H           7.7532   -0.9027    0.0000 H       1  UNL1        0.0650
     36 H           4.6311    0.9042    0.0000 H       1  UNL1        0.0650
     37 H           7.6781    1.1122    0.0000 H       1  UNL1        0.0564
     38 H           6.8897    1.3698    0.0000 H       1  UNL1        0.0564
     39 H           4.7065   -1.1208    0.0000 H       1  UNL1        0.0564
     40 H           5.4956   -1.3772    0.0000 H       1  UNL1        0.0564
     41 H           6.2100    2.3725    0.0000 H       1  UNL1        0.0659
     42 H           6.1769   -2.3735    0.0000 H       1  UNL1        0.0659
     43 H           3.5414    1.5054    0.0000 H       1  UNL1        0.0659
     44 H           8.8440   -1.5018    0.0000 H       1  UNL1        0.0659
     45 H          10.8484   -2.7898    0.0000 H       1  UNL1        0.0660
     46 H          10.8010   -1.9142    0.0000 H       1  UNL1        0.0660
     47 H           9.9254   -1.9616    0.0000 H       1  UNL1        0.0660
     48 H           1.5392    2.7969    0.0000 H       1  UNL1        0.0660
     49 H           1.5851    1.9213    0.0000 H       1  UNL1        0.0660
     50 H           2.4608    1.9672    0.0000 H       1  UNL1        0.0660
     51 H           6.1477   -5.3393    0.0000 H       1  UNL1        0.0660
     52 H           6.9296   -5.7360    0.0000 H       1  UNL1        0.0660
     53 H           7.3264   -4.9541    0.0000 H       1  UNL1        0.0660
     54 H           6.2443    5.3383    0.0000 H       1  UNL1        0.0660
     55 H           5.4631    5.7363    0.0000 H       1  UNL1        0.0660
     56 H           5.0650    4.9551    0.0000 H       1  UNL1        0.0660
     57 H           3.1582    5.4258    0.0000 H       1  UNL1        0.0660
     58 H           2.4228    4.9483    0.0000 H       1  UNL1        0.0660
     59 H           2.9003    4.2129    0.0000 H       1  UNL1        0.0660
     60 H           9.2340   -5.4215    0.0000 H       1  UNL1        0.0660
     61 H           9.9686   -4.9427    0.0000 H       1  UNL1        0.0660
     62 H           9.4898   -4.2082    0.0000 H       1  UNL1        0.0660
@<TRIPOS>BOND
     1     1    11    1
     2     1    14    1
     3     2    12    1
     4     2    13    1
     5     3    21    1
     6     3    27    1
     7     4    22    1
     8     4    28    1
     9     5    23    1
    10     5    29    1
    11     6    24    1
    12     6    30    1
    13     7    25    1
    14     7    31    1
    15     8    26    1
    16     8    32    1
    17     9    10    1
    18     9    12    1
    19     9    14    1
    20     9    34    1
    21    10    11    1
    22    10    13    1
    23    10    33    1
    24    11    15    1
    25    11    36    1
    26    12    16    1
    27    12    35    1
    28    13    37    1
    29    13    38    1
    30    14    39    1
    31    14    40    1
    32    15    17   ar
    33    15    19   ar
    34    16    18   ar
    35    16    20   ar
    36    17    23   ar
    37    17    41    1
    38    18    24   ar
    39    18    42    1
    40    19    21   ar
    41    19    43    1
    42    20    22   ar
    43    20    44    1
    44    21    25   ar
    45    22    26   ar
    46    23    25   ar
    47    24    26   ar
    48    27    48    1
    49    27    49    1
    50    27    50    1
    51    28    45    1
    52    28    46    1
    53    28    47    1
    54    29    54    1
    55    29    55    1
    56    29    56    1
    57    30    51    1
    58    30    52    1
    59    30    53    1
    60    31    57    1
    61    31    58    1
    62    31    59    1
    63    32    60    1
    64    32    61    1
    65    32    62    1
