@<TRIPOS>MOLECULE
IMPHY006305
 31 33 0 0 0
SMALL
GASTEIGER

@<TRIPOS>ATOM
      1 O4*         4.4026    0.7369    0.0000 O.3     1    I1       -0.3457
      2 O2*         6.7485   -0.3550    0.0000 O.3     1    I1       -0.3847
      3 O3*         6.7523    1.8206    0.0000 O.3     1    I1       -0.3864
      4 O5*         5.3548    3.2384    0.0000 O.3     1    I1       -0.3924
      5 O6          2.8660   -3.8284    0.0000 O.2     1    I1       -0.2634
      6 N9          4.6783   -1.0237    0.0000 N.ar    1    I1       -0.2869
      7 N3          2.8660   -0.8284    0.0000 N.ar    1    I1       -0.3303
      8 N7          4.6783   -2.6332    0.0000 N.ar    1    I1       -0.2286
      9 N1          2.0000   -2.3284    0.0000 N.ar    1    I1       -0.1976
     10 C2*         5.9405    0.2342    0.0000 C.3     1    I1        0.1285
     11 C1*         4.9889   -0.0732    0.0000 C.3     1    I1        0.1666
     12 C3*         5.9422    1.2342    0.0000 C.3     1    I1        0.1135
     13 C4*         4.9917    1.5449    0.0000 C.3     1    I1        0.1126
     14 C5*         4.6844    2.4964    0.0000 C.3     1    I1        0.0730
     15 C4          3.7320   -1.3284    0.0000 C.ar    1    I1        0.1470
     16 C8          5.2619   -1.8284    0.0000 C.ar    1    I1        0.1004
     17 C5          3.7320   -2.3284    0.0000 C.ar    1    I1        0.1720
     18 C6          2.8660   -2.8284    0.0000 C.ar    1    I1        0.3006
     19 C2          2.0000   -1.3284    0.0000 C.ar    1    I1        0.0988
     20 H1*         5.4266   -0.5123    0.0000 H       1    I1        0.0866
     21 H2*         6.4934    0.5147    0.0000 H       1    I1        0.0665
     22 H3*         5.8463    1.8467    0.0000 H       1    I1        0.0647
     23 H4*         4.3795    1.6429    0.0000 H       1    I1        0.0647
     24 H5*1        4.3035    2.9857    0.0000 H       1    I1        0.0584
     25 H5*2        4.1364    2.2063    0.0000 H       1    I1        0.0584
     26 H2*         7.3154   -0.1038    0.0000 H       1    I1        0.2101
     27 H8          5.8819   -1.8284    0.0000 H       1    I1        0.1030
     28 H3*         7.3182    1.5674    0.0000 H       1    I1        0.2100
     29 H3          2.8660   -0.2084    0.0000 H       1    I1        0.1682
     30 H5*         5.1642    3.8284    0.0000 H       1    I1        0.2095
     31 H2          1.4631   -1.0184    0.0000 H       1    I1        0.1028
@<TRIPOS>BOND
     1     1    11    1
     2     1    13    1
     3    10     2    1
     4     2    26    1
     5    12     3    1
     6     3    28    1
     7     4    14    1
     8     4    30    1
     9     5    18    2
    10    11     6    1
    11     6    15   ar
    12     6    16   ar
    13     7    15   ar
    14     7    19   ar
    15     7    29    1
    16     8    16   ar
    17     8    17   ar
    18     9    18   ar
    19     9    19   ar
    20    10    11    1
    21    10    12    1
    22    10    21    1
    23    11    20    1
    24    12    13    1
    25    12    22    1
    26    13    14    1
    27    13    23    1
    28    14    24    1
    29    14    25    1
    30    15    17   ar
    31    16    27    1
    32    17    18   ar
    33    19    31    1
