@<TRIPOS>MOLECULE
IMPHY006156
 23 23 0 0 0
SMALL
GASTEIGER

@<TRIPOS>ATOM
      1 O           3.7320    1.5000    0.0000 O.3     1  UNL1       -0.4504
      2 O           4.5981    0.0000    0.0000 O.2     1  UNL1       -0.2261
      3 N           2.8660    0.0000    0.0000 N.am    1  UNL1       -0.2512
      4 C           2.8660   -1.0000    0.0000 C.ar    1  UNL1        0.0364
      5 C           2.0000   -1.5000    0.0000 C.ar    1  UNL1       -0.0404
      6 C           3.7320   -1.5000    0.0000 C.ar    1  UNL1       -0.0404
      7 C           4.5981    2.0000    0.0000 C.3     1  UNL1        0.0913
      8 C           2.0000   -2.5000    0.0000 C.ar    1  UNL1       -0.0600
      9 C           3.7320   -2.5000    0.0000 C.ar    1  UNL1       -0.0600
     10 C           2.8660   -3.0000    0.0000 C.ar    1  UNL1       -0.0616
     11 C           3.7320    0.5000    0.0000 C.2     1  UNL1        0.4045
     12 C           4.5981    3.0000    0.0000 C.3     1  UNL1       -0.0305
     13 H           1.4631   -1.1900    0.0000 H       1  UNL1        0.0636
     14 H           4.2690   -1.1900    0.0000 H       1  UNL1        0.0636
     15 H           2.3291    0.3100    0.0000 H       1  UNL1        0.1582
     16 H           4.8101    1.4174    0.0000 H       1  UNL1        0.0695
     17 H           5.2087    2.1077    0.0000 H       1  UNL1        0.0695
     18 H           1.4631   -2.8100    0.0000 H       1  UNL1        0.0618
     19 H           4.2690   -2.8100    0.0000 H       1  UNL1        0.0618
     20 H           2.8660   -3.6200    0.0000 H       1  UNL1        0.0618
     21 H           5.2181    3.0000    0.0000 H       1  UNL1        0.0262
     22 H           4.5981    3.6200    0.0000 H       1  UNL1        0.0262
     23 H           3.9781    3.0000    0.0000 H       1  UNL1        0.0262
@<TRIPOS>BOND
     1     1     7    1
     2     1    11    1
     3     2    11    2
     4     3     4    1
     5     3    11   am
     6     3    15    1
     7     4     5   ar
     8     4     6   ar
     9     5     8   ar
    10     5    13    1
    11     6     9   ar
    12     6    14    1
    13     7    12    1
    14     7    16    1
    15     7    17    1
    16     8    10   ar
    17     8    18    1
    18     9    10   ar
    19     9    19    1
    20    10    20    1
    21    12    21    1
    22    12    22    1
    23    12    23    1
