@<TRIPOS>MOLECULE
IMPHY017351
 22 21 0 0 0
SMALL
GASTEIGER

@<TRIPOS>ATOM
      1 O           8.0622   -0.2500    0.0000 O.3     1  UNL1       -0.3910
      2 C           3.7320    0.2500    0.0000 C.3     1  UNL1       -0.0499
      3 C           2.8660   -0.2500    0.0000 C.3     1  UNL1       -0.0556
      4 C           4.5981   -0.2500    0.0000 C.3     1  UNL1       -0.0347
      5 C           2.0000    0.2500    0.0000 C.3     1  UNL1       -0.0653
      6 C           5.4641    0.2500    0.0000 C.2     1  UNL1       -0.0858
      7 C           6.3301   -0.2500    0.0000 C.2     1  UNL1       -0.0629
      8 C           7.1962    0.2500    0.0000 C.3     1  UNL1        0.0624
      9 H           4.1306    0.7249    0.0000 H       1  UNL1        0.0268
     10 H           3.3335    0.7249    0.0000 H       1  UNL1        0.0268
     11 H           4.1996   -0.7249    0.0000 H       1  UNL1        0.0307
     12 H           4.9966   -0.7249    0.0000 H       1  UNL1        0.0307
     13 H           2.4675   -0.7249    0.0000 H       1  UNL1        0.0263
     14 H           3.2646   -0.7249    0.0000 H       1  UNL1        0.0263
     15 H           2.3100    0.7869    0.0000 H       1  UNL1        0.0230
     16 H           1.4631    0.5600    0.0000 H       1  UNL1        0.0230
     17 H           1.6900   -0.2869    0.0000 H       1  UNL1        0.0230
     18 H           5.4641    0.8700    0.0000 H       1  UNL1        0.0570
     19 H           6.3301   -0.8700    0.0000 H       1  UNL1        0.0591
     20 H           7.5947    0.7249    0.0000 H       1  UNL1        0.0601
     21 H           6.7976    0.7249    0.0000 H       1  UNL1        0.0601
     22 H           8.5991    0.0600    0.0000 H       1  UNL1        0.2098
@<TRIPOS>BOND
     1     1     8    1
     2     1    22    1
     3     2     3    1
     4     2     4    1
     5     2     9    1
     6     2    10    1
     7     3     5    1
     8     3    13    1
     9     3    14    1
    10     4     6    1
    11     4    11    1
    12     4    12    1
    13     5    15    1
    14     5    16    1
    15     5    17    1
    16     6     7    2
    17     6    18    1
    18     7     8    1
    19     7    19    1
    20     8    20    1
    21     8    21    1
