@<TRIPOS>MOLECULE
IMPHY007899
 46 50 0 0 0
SMALL
GASTEIGER

@<TRIPOS>ATOM
      1 O           3.9061   -2.3407    0.0000 O.3     1  UNL1       -0.4778
      2 O           5.6500    0.7355    0.0000 O.2     1  UNL1       -0.4614
      3 O           5.6660   -3.3060    0.0000 O.3     1  UNL1       -0.4914
      4 O           9.4028    3.7068    0.0000 O.3     1  UNL1       -0.4526
      5 O           8.3022   -0.8091    0.0000 O.2     1  UNL1       -0.2864
      6 O          10.7935    2.8967    0.0000 O.3     1  UNL1       -0.4526
      7 C           3.0000   -1.8268    0.0000 C.3     1  UNL1        0.1237
      8 C           4.8000   -0.8060    0.0000 C.ar    1  UNL1        0.0631
      9 C           4.8000   -1.8060    0.0000 C.ar    1  UNL1        0.1738
     10 C           3.0000   -0.7852    0.0000 C.2     1  UNL1       -0.0408
     11 C           5.6660   -0.3060    0.0000 C.ar    1  UNL1        0.1492
     12 C           6.5320   -0.8060    0.0000 C.ar    1  UNL1        0.0688
     13 C           3.9061   -0.2713    0.0000 C.2     1  UNL1       -0.0476
     14 C           2.0000   -1.8307    0.0000 C.3     1  UNL1       -0.0215
     15 C           2.5033   -2.6948    0.0000 C.3     1  UNL1       -0.0215
     16 C           5.6660   -2.3060    0.0000 C.ar    1  UNL1        0.1630
     17 C           6.5320   -1.8060    0.0000 C.ar    1  UNL1       -0.0019
     18 C           7.4420   -0.2992    0.0000 C.ar    1  UNL1        0.2003
     19 C           7.4501    0.7424    0.0000 C.ar    1  UNL1        0.0644
     20 C           8.3180    1.2391    0.0000 C.ar    1  UNL1       -0.0076
     21 C           6.5480    1.2633    0.0000 C.ar    1  UNL1        0.1039
     22 C           8.3219    2.2391    0.0000 C.ar    1  UNL1       -0.0082
     23 C           9.1898    2.7358    0.0000 C.ar    1  UNL1        0.1668
     24 C           9.1821    0.7358    0.0000 C.ar    1  UNL1       -0.0501
     25 C          10.0539    2.2324    0.0000 C.ar    1  UNL1        0.1663
     26 C          10.0501    1.2324    0.0000 C.ar    1  UNL1       -0.0156
     27 C          10.3919    3.8060    0.0000 C.3     1  UNL1        0.2332
     28 C           6.5320   -3.8060    0.0000 C.3     1  UNL1        0.0790
     29 H           2.4643   -0.4731    0.0000 H       1  UNL1        0.0611
     30 H           3.9132    0.3486    0.0000 H       1  UNL1        0.0624
     31 H           1.9652   -2.3868    0.0000 H       1  UNL1        0.0271
     32 H           2.1954   -3.2329    0.0000 H       1  UNL1        0.0271
     33 H           3.0415   -3.0027    0.0000 H       1  UNL1        0.0271
     34 H           1.9976   -1.2107    0.0000 H       1  UNL1        0.0271
     35 H           1.3800   -1.8331    0.0000 H       1  UNL1        0.0271
     36 H           2.0024   -2.4507    0.0000 H       1  UNL1        0.0271
     37 H           7.0690   -2.1160    0.0000 H       1  UNL1        0.0663
     38 H           6.5456    1.8833    0.0000 H       1  UNL1        0.1037
     39 H           7.7862    2.5512    0.0000 H       1  UNL1        0.0661
     40 H           9.1797    0.1158    0.0000 H       1  UNL1        0.0625
     41 H          10.5858    0.9204    0.0000 H       1  UNL1        0.0655
     42 H          10.9822    3.9955    0.0000 H       1  UNL1        0.1166
     43 H          10.2655    4.4130    0.0000 H       1  UNL1        0.1166
     44 H           6.2220   -4.3429    0.0000 H       1  UNL1        0.0660
     45 H           7.0690   -4.1160    0.0000 H       1  UNL1        0.0660
     46 H           6.8420   -3.2691    0.0000 H       1  UNL1        0.0660
@<TRIPOS>BOND
     1     1     7    1
     2     1     9    1
     3     2    11   ar
     4     2    21   ar
     5     3    16    1
     6     3    28    1
     7     4    23    1
     8     4    27    1
     9     5    18    2
    10     6    25    1
    11     6    27    1
    12     7    10    1
    13     7    14    1
    14     7    15    1
    15     8     9   ar
    16     8    11   ar
    17     8    13    1
    18     9    16   ar
    19    10    13    2
    20    10    29    1
    21    11    12   ar
    22    12    17   ar
    23    12    18   ar
    24    13    30    1
    25    14    34    1
    26    14    35    1
    27    14    36    1
    28    15    31    1
    29    15    32    1
    30    15    33    1
    31    16    17   ar
    32    17    37    1
    33    18    19   ar
    34    19    20    1
    35    19    21   ar
    36    20    22   ar
    37    20    24   ar
    38    21    38    1
    39    22    23   ar
    40    22    39    1
    41    23    25   ar
    42    24    26   ar
    43    24    40    1
    44    25    26   ar
    45    26    41    1
    46    27    42    1
    47    27    43    1
    48    28    44    1
    49    28    45    1
    50    28    46    1
