@<TRIPOS>MOLECULE
IMPHY009063
 42 42 0 0 0
SMALL
GASTEIGER

@<TRIPOS>ATOM
      1 K           7.7331    4.6550    0.0000 K       1  UNL1        0.0000
      2 O           4.2690   -1.3450    0.0000 O.3     2  UNL2        0.0000
      3 O           2.5369   -3.3450    0.0000 O.3     2  UNL2        0.0000
      4 O           4.2690   -4.3450    0.0000 O.3     2  UNL2        0.0000
      5 O           6.0010   -1.3450    0.0000 O.2     2  UNL2        0.0000
      6 O           6.0010   -3.3450    0.0000 O.3     2  UNL2        0.0000
      7 O           2.5369   -0.3450    0.0000 O.3     2  UNL2        0.0000
      8 O           5.1350    1.1550    0.0000 O.3     2  UNL2        0.0000
      9 O           4.2690   -0.3450    0.0000 O.2     2  UNL2        0.0000
     10 O           6.8671    4.1550    0.0000 O.co2   2  UNL2       -1.0000
     11 C           3.4030   -2.8450    0.0000 C.3     2  UNL2        0.0000
     12 C           4.2690   -3.3450    0.0000 C.3     2  UNL2        0.0000
     13 C           3.4030   -1.8450    0.0000 C.3     2  UNL2        0.0000
     14 C           5.1350   -2.8450    0.0000 C.3     2  UNL2        0.0000
     15 C           5.1350   -1.8450    0.0000 C.3     2  UNL2        0.0000
     16 C           2.5369   -1.3450    0.0000 C.3     2  UNL2        0.0000
     17 C           6.0010   -0.3450    0.0000 C.2     2  UNL2        0.0000
     18 C           6.8671    0.1550    0.0000 C.2     2  UNL2        0.0000
     19 C           5.1350    0.1550    0.0000 C.2     2  UNL2        0.0000
     20 C           6.8671    1.1550    0.0000 C.ar    2  UNL2        0.0000
     21 C           7.7331    1.6550    0.0000 C.ar    2  UNL2        0.0000
     22 C           6.0010    1.6550    0.0000 C.ar    2  UNL2        0.0000
     23 C           7.7331    2.6550    0.0000 C.ar    2  UNL2        0.0000
     24 C           6.0010    2.6550    0.0000 C.ar    2  UNL2        0.0000
     25 C           6.8671    3.1550    0.0000 C.ar    2  UNL2        0.0000
     26 H           3.4030   -3.4650    0.0000 H       2  UNL2        0.0000
     27 H           4.8059   -3.6550    0.0000 H       2  UNL2        0.0000
     28 H           3.4030   -1.2250    0.0000 H       2  UNL2        0.0000
     29 H           5.6720   -2.5350    0.0000 H       2  UNL2        0.0000
     30 H           5.1350   -1.2250    0.0000 H       2  UNL2        0.0000
     31 H           1.9264   -1.2373    0.0000 H       2  UNL2        0.0000
     32 H           2.3249   -1.9276    0.0000 H       2  UNL2        0.0000
     33 H           2.0000   -3.0350    0.0000 H       2  UNL2        0.0000
     34 H           3.7320   -4.6550    0.0000 H       2  UNL2        0.0000
     35 H           6.0010   -3.9650    0.0000 H       2  UNL2        0.0000
     36 H           2.0000   -0.0350    0.0000 H       2  UNL2        0.0000
     37 H           7.4040   -0.1550    0.0000 H       2  UNL2        0.0000
     38 H           8.2700    1.3450    0.0000 H       2  UNL2        0.0000
     39 H           5.4641    1.3450    0.0000 H       2  UNL2        0.0000
     40 H           8.2700    2.9650    0.0000 H       2  UNL2        0.0000
     41 H           5.4641    2.9650    0.0000 H       2  UNL2        0.0000
     42 H           4.5981    1.4650    0.0000 H       2  UNL2        0.0000
@<TRIPOS>UNITY_ATOM_ATTR
1 1
charge 1
10 1
charge -1
@<TRIPOS>BOND
     1     2    13    1
     2     2    15    1
     3    11     3    1
     4     3    33    1
     5    12     4    1
     6     4    34    1
     7    15     5    1
     8     5    17    1
     9    14     6    1
    10     6    35    1
    11     7    16    1
    12     7    36    1
    13     8    19    1
    14     8    42    1
    15     9    19    2
    16    10    25    1
    17    11    12    1
    18    11    13    1
    19    11    26    1
    20    12    14    1
    21    12    27    1
    22    13    16    1
    23    13    28    1
    24    14    15    1
    25    14    29    1
    26    15    30    1
    27    16    31    1
    28    16    32    1
    29    17    18    2
    30    17    19    1
    31    18    20    1
    32    18    37    1
    33    20    21   ar
    34    20    22   ar
    35    21    23   ar
    36    21    38    1
    37    22    24   ar
    38    22    39    1
    39    23    25   ar
    40    23    40    1
    41    24    25   ar
    42    24    41    1
