@<TRIPOS>MOLECULE
IMPHY006761
 39 42 0 0 0
SMALL
GASTEIGER

@<TRIPOS>ATOM
      1 O           5.2619    1.4988    0.0000 O.3     1  UNL1       -0.3722
      2 O           6.6458    1.9052    0.0000 O.2     1  UNL1       -0.2882
      3 O           6.1443   -2.0358    0.0000 O.2     1  UNL1       -0.2868
      4 O           9.8009   -1.0470    0.0000 O.3     1  UNL1       -0.5067
      5 C           5.2619    0.4988    0.0000 C.3     1  UNL1        0.1784
      6 C           3.5298    0.4988    0.0000 C.2     1  UNL1       -0.0375
      7 C           4.3958    0.9988    0.0000 C.2     1  UNL1       -0.0256
      8 C           3.5298   -0.5012    0.0000 C.2     1  UNL1       -0.0223
      9 C           2.5836    0.8036    0.0000 C.3     1  UNL1       -0.0234
     10 C           5.2619   -0.5012    0.0000 C.2     1  UNL1        0.0435
     11 C           2.0000   -0.0012    0.0000 C.3     1  UNL1       -0.0271
     12 C           2.5836   -0.8059    0.0000 C.2     1  UNL1       -0.0649
     13 C           4.3958   -1.0012    0.0000 C.2     1  UNL1       -0.0440
     14 C           6.1558    1.0335    0.0000 C.2     1  UNL1        0.2040
     15 C           6.1558   -1.0358    0.0000 C.2     1  UNL1        0.1935
     16 C           4.3958    1.9988    0.0000 C.3     1  UNL1       -0.0398
     17 C           7.0619    0.5196    0.0000 C.ar    1  UNL1        0.0321
     18 C           7.0619   -0.5220    0.0000 C.ar    1  UNL1        0.0361
     19 C           2.2729   -1.7564    0.0000 C.3     1  UNL1       -0.0429
     20 C           7.9930    1.0766    0.0000 C.ar    1  UNL1       -0.0470
     21 C           7.9930   -1.0789    0.0000 C.ar    1  UNL1       -0.0087
     22 C           8.9368   -0.5437    0.0000 C.ar    1  UNL1        0.1176
     23 C           8.9368    0.5413    0.0000 C.ar    1  UNL1       -0.0195
     24 H           2.8346    1.3705    0.0000 H       1  UNL1        0.0316
     25 H           2.0462    1.1128    0.0000 H       1  UNL1        0.0316
     26 H           1.5391    0.4136    0.0000 H       1  UNL1        0.0313
     27 H           1.5391   -0.4159    0.0000 H       1  UNL1        0.0313
     28 H           4.3958   -1.6212    0.0000 H       1  UNL1        0.0629
     29 H           5.0158    1.9988    0.0000 H       1  UNL1        0.0276
     30 H           4.3958    2.6188    0.0000 H       1  UNL1        0.0276
     31 H           3.7758    1.9988    0.0000 H       1  UNL1        0.0276
     32 H           1.6836   -1.5638    0.0000 H       1  UNL1        0.0275
     33 H           2.0803   -2.3457    0.0000 H       1  UNL1        0.0275
     34 H           2.8623   -1.9490    0.0000 H       1  UNL1        0.0275
     35 H           5.5719    2.0358    0.0000 H       1  UNL1        0.2116
     36 H           7.9859    1.6965    0.0000 H       1  UNL1        0.0626
     37 H           7.9859   -1.6989    0.0000 H       1  UNL1        0.0661
     38 H           9.4726    0.8534    0.0000 H       1  UNL1        0.0654
     39 H          10.3391   -0.7391    0.0000 H       1  UNL1        0.2921
@<TRIPOS>BOND
     1     5     1    1
     2     1    35    1
     3     2    14    2
     4     3    15    2
     5     4    22    1
     6     4    39    1
     7     5     7    1
     8     5    10    1
     9     5    14    1
    10     6     7    2
    11     6     8    1
    12     6     9    1
    13     7    16    1
    14     8    12    2
    15     8    13    1
    16     9    11    1
    17     9    24    1
    18     9    25    1
    19    10    13    2
    20    10    15    1
    21    11    12    1
    22    11    26    1
    23    11    27    1
    24    12    19    1
    25    13    28    1
    26    14    17    1
    27    15    18    1
    28    16    29    1
    29    16    30    1
    30    16    31    1
    31    17    18   ar
    32    17    20   ar
    33    18    21   ar
    34    19    32    1
    35    19    33    1
    36    19    34    1
    37    20    23   ar
    38    20    36    1
    39    21    22   ar
    40    21    37    1
    41    22    23   ar
    42    23    38    1
