@<TRIPOS>MOLECULE
IMPHY012476
 28 28 0 0 0
SMALL
GASTEIGER

@<TRIPOS>ATOM
      1 O           2.8660    0.0000    0.0000 O.3     1  UNL1       -0.4948
      2 C           4.5981    1.0000    0.0000 C.3     1  UNL1       -0.0092
      3 C           4.5981    0.0000    0.0000 C.ar    1  UNL1       -0.0004
      4 C           4.5981    2.0000    0.0000 C.3     1  UNL1       -0.0559
      5 C           5.5981    1.0000    0.0000 C.3     1  UNL1       -0.0559
      6 C           3.5981    1.0000    0.0000 C.3     1  UNL1       -0.0559
      7 C           3.7320   -0.5000    0.0000 C.ar    1  UNL1        0.1238
      8 C           5.4641   -0.5000    0.0000 C.ar    1  UNL1       -0.0546
      9 C           3.7320   -1.5000    0.0000 C.ar    1  UNL1       -0.0197
     10 C           5.4641   -1.5000    0.0000 C.ar    1  UNL1       -0.0613
     11 C           4.5981   -2.0000    0.0000 C.ar    1  UNL1       -0.0583
     12 C           2.0000   -0.5000    0.0000 C.3     1  UNL1        0.0788
     13 H           5.2181    2.0000    0.0000 H       1  UNL1        0.0238
     14 H           4.5981    2.6200    0.0000 H       1  UNL1        0.0238
     15 H           3.9781    2.0000    0.0000 H       1  UNL1        0.0238
     16 H           5.5981    0.3800    0.0000 H       1  UNL1        0.0238
     17 H           6.2181    1.0000    0.0000 H       1  UNL1        0.0238
     18 H           5.5981    1.6200    0.0000 H       1  UNL1        0.0238
     19 H           3.5981    1.6200    0.0000 H       1  UNL1        0.0238
     20 H           2.9781    1.0000    0.0000 H       1  UNL1        0.0238
     21 H           3.5981    0.3800    0.0000 H       1  UNL1        0.0238
     22 H           6.0010   -0.1900    0.0000 H       1  UNL1        0.0622
     23 H           3.1951   -1.8100    0.0000 H       1  UNL1        0.0654
     24 H           6.0010   -1.8100    0.0000 H       1  UNL1        0.0618
     25 H           4.5981   -2.6200    0.0000 H       1  UNL1        0.0619
     26 H           1.6900    0.0369    0.0000 H       1  UNL1        0.0660
     27 H           1.4631   -0.8100    0.0000 H       1  UNL1        0.0660
     28 H           2.3100   -1.0369    0.0000 H       1  UNL1        0.0660
@<TRIPOS>BOND
     1     1     7    1
     2     1    12    1
     3     2     3    1
     4     2     4    1
     5     2     5    1
     6     2     6    1
     7     3     7   ar
     8     3     8   ar
     9     4    13    1
    10     4    14    1
    11     4    15    1
    12     5    16    1
    13     5    17    1
    14     5    18    1
    15     6    19    1
    16     6    20    1
    17     6    21    1
    18     7     9   ar
    19     8    10   ar
    20     8    22    1
    21     9    11   ar
    22     9    23    1
    23    10    11   ar
    24    10    24    1
    25    11    25    1
    26    12    26    1
    27    12    27    1
    28    12    28    1
