@<TRIPOS>MOLECULE
IMPHY012998
 66 68 0 0 0
SMALL
GASTEIGER

@<TRIPOS>ATOM
      1 O           8.1301   -1.0000    0.0000 O.2     1  UNL1       -0.4539
      2 O          11.6602    1.0241    0.0000 O.3     1  UNL1       -0.5031
      3 O          11.6602   -1.0241    0.0000 O.3     1  UNL1       -0.5030
      4 O           8.1301    2.0000    0.0000 O.2     1  UNL1       -0.2863
      5 O           6.3817    2.0346    0.0000 O.3     1  UNL1       -0.5055
      6 O           4.6000   -1.0241    0.0000 O.3     1  UNL1       -0.5062
      7 C           8.9961    0.5000    0.0000 C.ar    1  UNL1        0.0721
      8 C           8.9961   -0.5000    0.0000 C.ar    1  UNL1        0.1467
      9 C           9.8901    1.0347    0.0000 C.ar    1  UNL1        0.0158
     10 C           9.8901   -1.0347    0.0000 C.ar    1  UNL1        0.0443
     11 C           7.2641    0.5000    0.0000 C.ar    1  UNL1        0.1064
     12 C           8.1301    1.0000    0.0000 C.ar    1  UNL1        0.2041
     13 C           7.2641   -0.5000    0.0000 C.ar    1  UNL1        0.1463
     14 C          10.7961    0.5208    0.0000 C.ar    1  UNL1        0.1630
     15 C          10.7961   -0.5208    0.0000 C.ar    1  UNL1        0.1656
     16 C           9.8785    2.0346    0.0000 C.3     1  UNL1       -0.0049
     17 C           9.8785   -2.0346    0.0000 C.3     1  UNL1       -0.0021
     18 C           6.3701    1.0347    0.0000 C.ar    1  UNL1        0.1381
     19 C           5.4641    0.5208    0.0000 C.ar    1  UNL1        0.0400
     20 C           6.3701   -1.0347    0.0000 C.ar    1  UNL1        0.0234
     21 C           5.4641   -0.5208    0.0000 C.ar    1  UNL1        0.1273
     22 C           4.6000    1.0241    0.0000 C.3     1  UNL1       -0.0023
     23 C          10.7387    2.5446    0.0000 C.2     1  UNL1       -0.0808
     24 C          10.7387   -2.5446    0.0000 C.2     1  UNL1       -0.0807
     25 C          10.7271    3.5445    0.0000 C.2     1  UNL1       -0.0793
     26 C           3.7320    0.5275    0.0000 C.2     1  UNL1       -0.0807
     27 C          10.7271   -3.5445    0.0000 C.2     1  UNL1       -0.0793
     28 C           2.8680    1.0308    0.0000 C.2     1  UNL1       -0.0793
     29 C          11.5873    4.0545    0.0000 C.3     1  UNL1       -0.0440
     30 C           9.8554    4.0345    0.0000 C.3     1  UNL1       -0.0440
     31 C          11.5873   -4.0545    0.0000 C.3     1  UNL1       -0.0440
     32 C           9.8554   -4.0345    0.0000 C.3     1  UNL1       -0.0440
     33 C           2.0000    0.5342    0.0000 C.3     1  UNL1       -0.0440
     34 C           2.8718    2.0308    0.0000 C.3     1  UNL1       -0.0440
     35 H           9.6597    2.6147    0.0000 H       1  UNL1        0.0357
     36 H           9.2692    1.9199    0.0000 H       1  UNL1        0.0357
     37 H           9.2692   -1.9199    0.0000 H       1  UNL1        0.0358
     38 H           9.6597   -2.6147    0.0000 H       1  UNL1        0.0358
     39 H           6.3773   -1.6546    0.0000 H       1  UNL1        0.0691
     40 H           5.0003    1.4976    0.0000 H       1  UNL1        0.0358
     41 H           4.2033    1.5006    0.0000 H       1  UNL1        0.0358
     42 H          11.2792    2.2408    0.0000 H       1  UNL1        0.0575
     43 H          11.2792   -2.2408    0.0000 H       1  UNL1        0.0575
     44 H           3.7296   -0.0925    0.0000 H       1  UNL1        0.0575
     45 H          12.1984    0.7162    0.0000 H       1  UNL1        0.2923
     46 H          12.1984   -0.7162    0.0000 H       1  UNL1        0.2923
     47 H           5.8484    2.3508    0.0000 H       1  UNL1        0.2922
     48 H           4.6024   -1.6442    0.0000 H       1  UNL1        0.2921
     49 H          11.9035    3.5212    0.0000 H       1  UNL1        0.0274
     50 H          12.1206    4.3707    0.0000 H       1  UNL1        0.0274
     51 H          11.2711    4.5878    0.0000 H       1  UNL1        0.0274
     52 H          10.1592    4.5749    0.0000 H       1  UNL1        0.0274
     53 H           9.3149    4.3382    0.0000 H       1  UNL1        0.0274
     54 H           9.5516    3.4940    0.0000 H       1  UNL1        0.0274
     55 H          11.2711   -4.5878    0.0000 H       1  UNL1        0.0274
     56 H          12.1206   -4.3707    0.0000 H       1  UNL1        0.0274
     57 H          11.9035   -3.5212    0.0000 H       1  UNL1        0.0274
     58 H           9.5516   -3.4940    0.0000 H       1  UNL1        0.0274
     59 H           9.3149   -4.3382    0.0000 H       1  UNL1        0.0274
     60 H          10.1592   -4.5749    0.0000 H       1  UNL1        0.0274
     61 H           1.6921    1.0723    0.0000 H       1  UNL1        0.0274
     62 H           1.4619    0.2262    0.0000 H       1  UNL1        0.0274
     63 H           2.3079   -0.0040    0.0000 H       1  UNL1        0.0274
     64 H           3.4918    2.0284    0.0000 H       1  UNL1        0.0274
     65 H           2.8742    2.6508    0.0000 H       1  UNL1        0.0274
     66 H           2.2518    2.0332    0.0000 H       1  UNL1        0.0274
@<TRIPOS>BOND
     1     1     8   ar
     2     1    13   ar
     3     2    14    1
     4     2    45    1
     5     3    15    1
     6     3    46    1
     7     4    12    2
     8     5    18    1
     9     5    47    1
    10     6    21    1
    11     6    48    1
    12     7     8   ar
    13     7     9   ar
    14     7    12   ar
    15     8    10   ar
    16     9    14   ar
    17     9    16    1
    18    10    15   ar
    19    10    17    1
    20    11    12   ar
    21    11    13   ar
    22    11    18   ar
    23    13    20   ar
    24    14    15   ar
    25    16    23    1
    26    16    35    1
    27    16    36    1
    28    17    24    1
    29    17    37    1
    30    17    38    1
    31    18    19   ar
    32    19    21   ar
    33    19    22    1
    34    20    21   ar
    35    20    39    1
    36    22    26    1
    37    22    40    1
    38    22    41    1
    39    23    25    2
    40    23    42    1
    41    24    27    2
    42    24    43    1
    43    25    29    1
    44    25    30    1
    45    26    28    2
    46    26    44    1
    47    27    31    1
    48    27    32    1
    49    28    33    1
    50    28    34    1
    51    29    49    1
    52    29    50    1
    53    29    51    1
    54    30    52    1
    55    30    53    1
    56    30    54    1
    57    31    55    1
    58    31    56    1
    59    31    57    1
    60    32    58    1
    61    32    59    1
    62    32    60    1
    63    33    61    1
    64    33    62    1
    65    33    63    1
    66    34    64    1
    67    34    65    1
    68    34    66    1
