@<TRIPOS>MOLECULE
IMPHY006358
 49 53 0 0 0
SMALL
GASTEIGER

@<TRIPOS>ATOM
      1 O           5.3422   -2.5188    0.0000 O.3     1  UNL1       -0.3867
      2 O           7.6789    0.5023    0.0000 O.3     1  UNL1       -0.4646
      3 O           6.8129    2.0023    0.0000 O.2     1  UNL1       -0.2453
      4 N           3.3369   -0.7710    0.0000 N.3     1  UNL1       -0.2954
      5 N           4.9022    1.9402    0.0000 N.pl3   1  UNL1       -0.3164
      6 C           4.2620    0.5023    0.0000 C.3     1  UNL1        0.0525
      7 C           4.2620   -0.4704    0.0000 C.3     1  UNL1        0.0261
      8 C           5.9469   -0.4704    0.0000 C.3     1  UNL1        0.0239
      9 C           5.1045   -0.9568    0.0000 C.3     1  UNL1       -0.0264
     10 C           5.3422   -1.5188    0.0000 C.3     1  UNL1        0.0855
     11 C           3.3369    0.8029    0.0000 C.3     1  UNL1       -0.0238
     12 C           5.1045    0.9887    0.0000 C.2     1  UNL1        0.0307
     13 C           4.1101   -1.5188    0.0000 C.3     1  UNL1        0.0287
     14 C           2.7652    0.0160    0.0000 C.3     1  UNL1        0.0005
     15 C           5.9469    0.5023    0.0000 C.2     1  UNL1        0.0603
     16 C           3.5392    1.1532    0.0000 C.ar    1  UNL1       -0.0130
     17 C           6.2083   -2.0188    0.0000 C.3     1  UNL1       -0.0251
     18 C           3.9348    2.0418    0.0000 C.ar    1  UNL1        0.0353
     19 C           2.5718    1.0515    0.0000 C.ar    1  UNL1       -0.0559
     20 C           6.8129    1.0023    0.0000 C.2     1  UNL1        0.3368
     21 C           7.0743   -1.5188    0.0000 C.3     1  UNL1       -0.0626
     22 C           3.3630    2.8288    0.0000 C.ar    1  UNL1       -0.0403
     23 C           2.0000    1.8385    0.0000 C.ar    1  UNL1       -0.0614
     24 C           2.3956    2.7271    0.0000 C.ar    1  UNL1       -0.0600
     25 C           8.5450    1.0023    0.0000 C.3     1  UNL1        0.0820
     26 H           4.1972   -1.0870    0.0000 H       1  UNL1        0.0475
     27 H           6.5458   -0.6307    0.0000 H       1  UNL1        0.0380
     28 H           4.7059   -1.4317    0.0000 H       1  UNL1        0.0287
     29 H           5.5030   -1.4317    0.0000 H       1  UNL1        0.0287
     30 H           3.5891    1.3693    0.0000 H       1  UNL1        0.0290
     31 H           2.8000    1.1129    0.0000 H       1  UNL1        0.0290
     32 H           3.5767   -1.8348    0.0000 H       1  UNL1        0.0455
     33 H           4.2739   -2.1168    0.0000 H       1  UNL1        0.0455
     34 H           2.3044    0.4308    0.0000 H       1  UNL1        0.0427
     35 H           2.3044   -0.3989    0.0000 H       1  UNL1        0.0427
     36 H           5.8097   -2.4938    0.0000 H       1  UNL1        0.0291
     37 H           6.6068   -2.4938    0.0000 H       1  UNL1        0.0291
     38 H           5.2666    2.4418    0.0000 H       1  UNL1        0.1519
     39 H           4.8053   -2.8288    0.0000 H       1  UNL1        0.2102
     40 H           2.3196    0.4851    0.0000 H       1  UNL1        0.0621
     41 H           7.3843   -2.0557    0.0000 H       1  UNL1        0.0231
     42 H           7.6112   -1.2088    0.0000 H       1  UNL1        0.0231
     43 H           6.7643   -0.9819    0.0000 H       1  UNL1        0.0231
     44 H           3.6152    3.3952    0.0000 H       1  UNL1        0.0636
     45 H           1.3834    1.7737    0.0000 H       1  UNL1        0.0618
     46 H           2.0312    3.2287    0.0000 H       1  UNL1        0.0618
     47 H           8.8550    0.4654    0.0000 H       1  UNL1        0.0661
     48 H           9.0819    1.3123    0.0000 H       1  UNL1        0.0661
     49 H           8.2350    1.5393    0.0000 H       1  UNL1        0.0661
@<TRIPOS>BOND
     1     1    10    1
     2     1    39    1
     3     2    20    1
     4     2    25    1
     5     3    20    2
     6     4     7    1
     7     4    13    1
     8     4    14    1
     9     5    12    1
    10     5    18    1
    11     5    38    1
    12     6     7    1
    13     6    11    1
    14     6    12    1
    15     6    16    1
    16     7     9    1
    17     7    26    1
    18     8     9    1
    19     8    10    1
    20     8    15    1
    21     8    27    1
    22     9    28    1
    23     9    29    1
    24    10    13    1
    25    10    17    1
    26    11    14    1
    27    11    30    1
    28    11    31    1
    29    12    15    2
    30    13    32    1
    31    13    33    1
    32    14    34    1
    33    14    35    1
    34    15    20    1
    35    16    18   ar
    36    16    19   ar
    37    17    21    1
    38    17    36    1
    39    17    37    1
    40    18    22   ar
    41    19    23   ar
    42    19    40    1
    43    21    41    1
    44    21    42    1
    45    21    43    1
    46    22    24   ar
    47    22    44    1
    48    23    24   ar
    49    23    45    1
    50    24    46    1
    51    25    47    1
    52    25    48    1
    53    25    49    1
