@<TRIPOS>MOLECULE
IMPHY002528
 80 84 0 0 0
SMALL
GASTEIGER

@<TRIPOS>ATOM
      1 O           3.3248    0.4142    0.0000 O.3     1  UNL1       -0.3880
      2 O           3.8493   -3.5603    0.0000 O.3     1  UNL1       -0.4802
      3 O           8.1108    3.7220    0.0000 O.3     1  UNL1       -0.3907
      4 O           5.5813   -3.5737    0.0000 O.2     1  UNL1       -0.2504
      5 C           7.3770   -0.5186    0.0000 C.3     1  UNL1       -0.0191
      6 C           7.3770    0.4814    0.0000 C.3     1  UNL1       -0.0220
      7 C           6.5109   -1.0186    0.0000 C.3     1  UNL1       -0.0050
      8 C           8.2709    1.0161    0.0000 C.3     1  UNL1       -0.0017
      9 C           9.1770    0.5022    0.0000 C.3     1  UNL1       -0.0230
     10 C           8.2709   -1.0532    0.0000 C.3     1  UNL1       -0.0462
     11 C           5.6449   -0.5186    0.0000 C.2     1  UNL1       -0.0602
     12 C           4.7349   -1.0254    0.0000 C.3     1  UNL1        0.0252
     13 C           9.1770   -0.5394    0.0000 C.3     1  UNL1       -0.0481
     14 C           4.7269   -2.0670    0.0000 C.3     1  UNL1        0.0767
     15 C           6.5270   -2.0601    0.0000 C.3     1  UNL1       -0.0424
     16 C           6.5109    0.9814    0.0000 C.3     1  UNL1       -0.0303
     17 C           9.9393    1.2030    0.0000 C.3     1  UNL1       -0.0129
     18 C           5.6290   -2.5878    0.0000 C.3     1  UNL1       -0.0358
     19 C           8.4810    2.0300    0.0000 C.2     1  UNL1       -0.0414
     20 C           7.7191   -1.4582    0.0000 C.3     1  UNL1       -0.0585
     21 C           3.8081   -0.4613    0.0000 C.3     1  UNL1        0.0733
     22 C           5.6449    0.4814    0.0000 C.2     1  UNL1       -0.0835
     23 C           7.1537   -1.7846    0.0000 C.3     1  UNL1       -0.0553
     24 C           7.4010    1.5094    0.0000 C.3     1  UNL1       -0.0552
     25 C           9.5100    2.1453    0.0000 C.2     1  UNL1       -0.0761
     26 C           3.7914   -2.6168    0.0000 C.3     1  UNL1       -0.0363
     27 C           2.8602   -0.9893    0.0000 C.3     1  UNL1       -0.0146
     28 C           2.8518   -2.0742    0.0000 C.3     1  UNL1       -0.0468
     29 C          10.8490    1.6183    0.0000 C.3     1  UNL1       -0.0561
     30 C          10.6154    0.4662    0.0000 C.3     1  UNL1       -0.0561
     31 C           4.7192   -3.0670    0.0000 C.2     1  UNL1        0.3116
     32 C           7.8074    2.7691    0.0000 C.3     1  UNL1        0.0658
     33 C           4.3247    0.3949    0.0000 C.3     1  UNL1       -0.0352
     34 C           2.0000   -0.4793    0.0000 C.3     1  UNL1       -0.0598
     35 H           8.1163    0.0621    0.0000 H       1  UNL1        0.0318
     36 H           9.9552    0.1605    0.0000 H       1  UNL1        0.0317
     37 H           7.8663   -1.5230    0.0000 H       1  UNL1        0.0271
     38 H           8.6645   -1.5323    0.0000 H       1  UNL1        0.0271
     39 H           4.7513   -0.1756    0.0000 H       1  UNL1        0.0384
     40 H           9.3860   -1.1231    0.0000 H       1  UNL1        0.0269
     41 H           9.7878   -0.4333    0.0000 H       1  UNL1        0.0269
     42 H           6.7450   -2.6405    0.0000 H       1  UNL1        0.0274
     43 H           7.1361   -1.9446    0.0000 H       1  UNL1        0.0274
     44 H           6.9095    1.4564    0.0000 H       1  UNL1        0.0311
     45 H           6.1124    1.4564    0.0000 H       1  UNL1        0.0311
     46 H           5.2316   -3.0638    0.0000 H       1  UNL1        0.0276
     47 H           6.0299   -3.0607    0.0000 H       1  UNL1        0.0276
     48 H           7.1365   -1.6704    0.0000 H       1  UNL1        0.0235
     49 H           7.9312   -2.0408    0.0000 H       1  UNL1        0.0235
     50 H           8.3017   -1.2461    0.0000 H       1  UNL1        0.0235
     51 H           5.1080    0.7914    0.0000 H       1  UNL1        0.0572
     52 H           6.6788   -2.1832    0.0000 H       1  UNL1        0.0238
     53 H           7.5522   -2.2596    0.0000 H       1  UNL1        0.0238
     54 H           7.6287   -1.3861    0.0000 H       1  UNL1        0.0238
     55 H           7.7069    2.0487    0.0000 H       1  UNL1        0.0238
     56 H           6.8617    1.8152    0.0000 H       1  UNL1        0.0238
     57 H           7.0952    0.9701    0.0000 H       1  UNL1        0.0238
     58 H           9.8159    2.6846    0.0000 H       1  UNL1        0.0578
     59 H           3.3942   -3.0927    0.0000 H       1  UNL1        0.0276
     60 H           4.1924   -3.0896    0.0000 H       1  UNL1        0.0276
     61 H           2.8686   -0.3693    0.0000 H       1  UNL1        0.0326
     62 H           2.2418   -1.9634    0.0000 H       1  UNL1        0.0269
     63 H           2.6383   -2.6563    0.0000 H       1  UNL1        0.0269
     64 H          10.1586    0.0470    0.0000 H       1  UNL1        0.0238
     65 H          11.0346    0.0094    0.0000 H       1  UNL1        0.0238
     66 H          11.0722    0.8854    0.0000 H       1  UNL1        0.0238
     67 H          11.1065    1.0543    0.0000 H       1  UNL1        0.0238
     68 H          11.4129    1.8758    0.0000 H       1  UNL1        0.0238
     69 H          10.5914    2.1823    0.0000 H       1  UNL1        0.0238
     70 H           7.2583    3.0569    0.0000 H       1  UNL1        0.0604
     71 H           7.4287    2.2783    0.0000 H       1  UNL1        0.0604
     72 H           4.8555    0.0746    0.0000 H       1  UNL1        0.0257
     73 H           4.6450    0.9257    0.0000 H       1  UNL1        0.0257
     74 H           3.7938    0.7152    0.0000 H       1  UNL1        0.0257
     75 H           2.3162    0.0540    0.0000 H       1  UNL1        0.0233
     76 H           1.4667   -0.1631    0.0000 H       1  UNL1        0.0233
     77 H           1.6838   -1.0126    0.0000 H       1  UNL1        0.0233
     78 H           2.7050    0.4261    0.0000 H       1  UNL1        0.2102
     79 H           3.8445   -4.1803    0.0000 H       1  UNL1        0.2951
     80 H           7.6932    4.1803    0.0000 H       1  UNL1        0.2098
@<TRIPOS>BOND
     1    21     1    1
     2     1    78    1
     3     2    31    1
     4     2    79    1
     5     3    32    1
     6     3    80    1
     7     4    31    2
     8     5     6    1
     9     5     7    1
    10     5    10    1
    11     5    20    1
    12     6     8    1
    13     6    16    1
    14     6    35    1
    15     7    11    1
    16     7    15    1
    17     7    23    1
    18     8     9    1
    19     8    19    1
    20     8    24    1
    21     9    13    1
    22     9    17    1
    23     9    36    1
    24    10    13    1
    25    10    37    1
    26    10    38    1
    27    11    12    1
    28    11    22    2
    29    12    14    1
    30    12    21    1
    31    12    39    1
    32    13    40    1
    33    13    41    1
    34    14    18    1
    35    14    26    1
    36    14    31    1
    37    15    18    1
    38    15    42    1
    39    15    43    1
    40    16    22    1
    41    16    44    1
    42    16    45    1
    43    17    25    1
    44    17    29    1
    45    17    30    1
    46    18    46    1
    47    18    47    1
    48    19    25    2
    49    19    32    1
    50    20    48    1
    51    20    49    1
    52    20    50    1
    53    21    27    1
    54    21    33    1
    55    22    51    1
    56    23    52    1
    57    23    53    1
    58    23    54    1
    59    24    55    1
    60    24    56    1
    61    24    57    1
    62    25    58    1
    63    26    28    1
    64    26    59    1
    65    26    60    1
    66    27    28    1
    67    27    34    1
    68    27    61    1
    69    28    62    1
    70    28    63    1
    71    29    67    1
    72    29    68    1
    73    29    69    1
    74    30    64    1
    75    30    65    1
    76    30    66    1
    77    32    70    1
    78    32    71    1
    79    33    72    1
    80    33    73    1
    81    33    74    1
    82    34    75    1
    83    34    76    1
    84    34    77    1
