@<TRIPOS>MOLECULE
IMPHY013947
 40 44 0 0 0
SMALL
GASTEIGER

@<TRIPOS>ATOM
      1 O           5.3717    1.1081    0.0000 O.3     1  UNL1       -0.3883
      2 O           7.1377    2.1459    0.0000 O.3     1  UNL1       -0.3892
      3 O           2.6079   -0.5851    0.0000 O.3     1  UNL1       -0.4526
      4 O           2.6079   -2.2616    0.0000 O.3     1  UNL1       -0.4526
      5 N           7.1256   -1.9233    0.0000 N.3     1  UNL1       -0.2943
      6 C           6.2596   -0.4233    0.0000 C.3     1  UNL1        0.0411
      7 C           7.1256   -0.9233    0.0000 C.3     1  UNL1        0.0229
      8 C           6.1461   -1.0269    0.0000 C.3     1  UNL1       -0.0266
      9 C           6.2435    0.6182    0.0000 C.3     1  UNL1        0.0921
     10 C           8.0356   -0.4165    0.0000 C.3     1  UNL1       -0.0340
     11 C           6.5462   -1.7197    0.0000 C.3     1  UNL1        0.0005
     12 C           5.3935   -0.9233    0.0000 C.ar    1  UNL1       -0.0290
     13 C           7.1415    1.1459    0.0000 C.3     1  UNL1        0.0820
     14 C           8.0436    0.6251    0.0000 C.3     1  UNL1       -0.0230
     15 C           6.2596   -2.4233    0.0000 C.3     1  UNL1        0.0247
     16 C           5.3935   -1.9233    0.0000 C.ar    1  UNL1       -0.0258
     17 C           4.4996   -0.3887    0.0000 C.ar    1  UNL1       -0.0120
     18 C           4.4996   -2.4580    0.0000 C.ar    1  UNL1       -0.0115
     19 C           3.5935   -0.9025    0.0000 C.ar    1  UNL1        0.1665
     20 C           3.5935   -1.9442    0.0000 C.ar    1  UNL1        0.1665
     21 C           2.0000   -1.4233    0.0000 C.3     1  UNL1        0.2332
     22 H           7.8617   -1.3483    0.0000 H       1  UNL1        0.0472
     23 H           5.5942   -0.7445    0.0000 H       1  UNL1        0.0287
     24 H           5.7190   -1.4763    0.0000 H       1  UNL1        0.0287
     25 H           5.7108    0.3010    0.0000 H       1  UNL1        0.0628
     26 H           8.2401   -1.0018    0.0000 H       1  UNL1        0.0281
     27 H           8.6472   -0.3151    0.0000 H       1  UNL1        0.0281
     28 H           5.9434   -1.8650    0.0000 H       1  UNL1        0.0427
     29 H           6.5147   -2.3389    0.0000 H       1  UNL1        0.0427
     30 H           7.6779    1.4570    0.0000 H       1  UNL1        0.0619
     31 H           8.6536    0.5143    0.0000 H       1  UNL1        0.0291
     32 H           8.2572    1.2072    0.0000 H       1  UNL1        0.0291
     33 H           5.8610   -2.8983    0.0000 H       1  UNL1        0.0476
     34 H           6.6581   -2.8983    0.0000 H       1  UNL1        0.0476
     35 H           4.5068    0.2313    0.0000 H       1  UNL1        0.0658
     36 H           5.3646    1.7281    0.0000 H       1  UNL1        0.2099
     37 H           4.5068   -3.0780    0.0000 H       1  UNL1        0.0658
     38 H           7.6734    2.4580    0.0000 H       1  UNL1        0.2099
     39 H           1.5391   -1.0086    0.0000 H       1  UNL1        0.1166
     40 H           1.5391   -1.8381    0.0000 H       1  UNL1        0.1166
@<TRIPOS>BOND
     1     9     1    1
     2     1    36    1
     3    13     2    1
     4     2    38    1
     5     3    19    1
     6     3    21    1
     7     4    20    1
     8     4    21    1
     9     5     7    1
    10     5    11    1
    11     5    15    1
    12     6     7    1
    13     6     8    1
    14     6     9    1
    15     6    12    1
    16     7    10    1
    17     7    22    1
    18     8    11    1
    19     8    23    1
    20     8    24    1
    21     9    13    1
    22     9    25    1
    23    10    14    1
    24    10    26    1
    25    10    27    1
    26    11    28    1
    27    11    29    1
    28    12    16   ar
    29    12    17   ar
    30    13    14    1
    31    13    30    1
    32    14    31    1
    33    14    32    1
    34    15    16    1
    35    15    33    1
    36    15    34    1
    37    16    18   ar
    38    17    19   ar
    39    17    35    1
    40    18    20   ar
    41    18    37    1
    42    19    20   ar
    43    21    39    1
    44    21    40    1
