@<TRIPOS>MOLECULE
IMPHY014524
 29 31 0 0 0
SMALL
GASTEIGER

@<TRIPOS>ATOM
      1 O           4.9557   -1.3333    0.0000 O.3     1  UNL1       -0.4806
      2 O           3.2237   -1.3324    0.0000 O.2     1  UNL1       -0.2510
      3 C           2.5739    0.8301    0.0000 C.3     1  UNL1       -0.0197
      4 C           2.3886    1.6033    0.0000 C.3     1  UNL1       -0.0312
      5 C           2.0000    0.4101    0.0000 C.3     1  UNL1       -0.0312
      6 C           3.2246    0.6676    0.0000 C.3     1  UNL1       -0.0133
      7 C           4.0843    0.9928    0.0000 C.3     1  UNL1       -0.0341
      8 C           3.3827    1.7366    0.0000 C.3     1  UNL1       -0.0460
      9 C           3.3827    0.0317    0.0000 C.3     1  UNL1       -0.0460
     10 C           2.8211    1.9533    0.0000 C.3     1  UNL1       -0.0585
     11 C           4.0904    0.1671    0.0000 C.3     1  UNL1        0.0509
     12 C           3.9331    1.5734    0.0000 C.3     1  UNL1       -0.0583
     13 C           4.0899   -0.8329    0.0000 C.2     1  UNL1        0.3052
     14 H           1.9917    2.0796    0.0000 H       1  UNL1        0.0309
     15 H           1.4542    0.1159    0.0000 H       1  UNL1        0.0309
     16 H           4.7031    1.0318    0.0000 H       1  UNL1        0.0306
     17 H           3.9117    2.0599    0.0000 H       1  UNL1        0.0271
     18 H           3.1754    2.3209    0.0000 H       1  UNL1        0.0271
     19 H           3.1480   -0.5421    0.0000 H       1  UNL1        0.0271
     20 H           3.9240   -0.2706    0.0000 H       1  UNL1        0.0271
     21 H           3.4266    1.8200    0.0000 H       1  UNL1        0.0235
     22 H           2.9543    2.5588    0.0000 H       1  UNL1        0.0235
     23 H           2.2156    2.0865    0.0000 H       1  UNL1        0.0235
     24 H           4.7009    0.0592    0.0000 H       1  UNL1        0.0383
     25 H           4.3027    0.7496    0.0000 H       1  UNL1        0.0383
     26 H           4.4214    1.1915    0.0000 H       1  UNL1        0.0235
     27 H           4.3150    2.0618    0.0000 H       1  UNL1        0.0235
     28 H           3.4447    1.9554    0.0000 H       1  UNL1        0.0235
     29 H           4.9554   -1.9533    0.0000 H       1  UNL1        0.2951
@<TRIPOS>BOND
     1     1    13    1
     2     1    29    1
     3     2    13    2
     4     3     4    1
     5     3     5    1
     6     3     6    1
     7     3    10    1
     8     4     5    1
     9     4     8    1
    10     4    14    1
    11     5     9    1
    12     5    15    1
    13     6     7    1
    14     6    11    1
    15     6    12    1
    16     7     8    1
    17     7     9    1
    18     7    16    1
    19     8    17    1
    20     8    18    1
    21     9    19    1
    22     9    20    1
    23    10    21    1
    24    10    22    1
    25    10    23    1
    26    11    13    1
    27    11    24    1
    28    11    25    1
    29    12    26    1
    30    12    27    1
    31    12    28    1
