@<TRIPOS>MOLECULE
IMPHY005574
 29 30 0 0 0
SMALL
GASTEIGER

@<TRIPOS>ATOM
      1 O           2.8660   -3.5950    0.0000 O.3     1  UNL1       -0.5068
      2 O           2.8660    2.4050    0.0000 O.2     1  UNL1       -0.2873
      3 C           2.8660   -0.5950    0.0000 C.ar    1  UNL1       -0.0247
      4 C           4.5981    2.4050    0.0000 C.ar    1  UNL1        0.0217
      5 C           2.8660    0.4050    0.0000 C.2     1  UNL1       -0.0510
      6 C           2.0000   -1.0950    0.0000 C.ar    1  UNL1       -0.0511
      7 C           3.7320   -1.0950    0.0000 C.ar    1  UNL1       -0.0511
      8 C           3.7320    1.9050    0.0000 C.2     1  UNL1        0.1861
      9 C           3.7320    0.9050    0.0000 C.2     1  UNL1       -0.0138
     10 C           5.4641    1.9050    0.0000 C.ar    1  UNL1       -0.0509
     11 C           4.5981    3.4050    0.0000 C.ar    1  UNL1       -0.0509
     12 C           2.0000   -2.0950    0.0000 C.ar    1  UNL1       -0.0196
     13 C           3.7320   -2.0950    0.0000 C.ar    1  UNL1       -0.0196
     14 C           2.8660   -2.5950    0.0000 C.ar    1  UNL1        0.1169
     15 C           6.3301    2.4050    0.0000 C.ar    1  UNL1       -0.0611
     16 C           5.4641    3.9050    0.0000 C.ar    1  UNL1       -0.0611
     17 C           6.3301    3.4050    0.0000 C.ar    1  UNL1       -0.0617
     18 H           2.3291    0.7150    0.0000 H       1  UNL1        0.0625
     19 H           1.4631   -0.7850    0.0000 H       1  UNL1        0.0625
     20 H           4.2690   -0.7850    0.0000 H       1  UNL1        0.0625
     21 H           4.2690    0.5950    0.0000 H       1  UNL1        0.0656
     22 H           5.4641    1.2850    0.0000 H       1  UNL1        0.0625
     23 H           4.0611    3.7150    0.0000 H       1  UNL1        0.0625
     24 H           1.4631   -2.4050    0.0000 H       1  UNL1        0.0654
     25 H           4.2690   -2.4050    0.0000 H       1  UNL1        0.0654
     26 H           6.8671    2.0950    0.0000 H       1  UNL1        0.0618
     27 H           5.4641    4.5250    0.0000 H       1  UNL1        0.0618
     28 H           6.8671    3.7150    0.0000 H       1  UNL1        0.0618
     29 H           2.3291   -3.9050    0.0000 H       1  UNL1        0.2921
@<TRIPOS>BOND
     1     1    14    1
     2     1    29    1
     3     2     8    2
     4     3     5    1
     5     3     6   ar
     6     3     7   ar
     7     4     8    1
     8     4    10   ar
     9     4    11   ar
    10     5     9    2
    11     5    18    1
    12     6    12   ar
    13     6    19    1
    14     7    13   ar
    15     7    20    1
    16     8     9    1
    17     9    21    1
    18    10    15   ar
    19    10    22    1
    20    11    16   ar
    21    11    23    1
    22    12    14   ar
    23    12    24    1
    24    13    14   ar
    25    13    25    1
    26    15    17   ar
    27    15    26    1
    28    16    17   ar
    29    16    27    1
    30    17    28    1
