@<TRIPOS>MOLECULE
IMPHY015880
 66 69 0 0 0
SMALL
GASTEIGER

@<TRIPOS>ATOM
      1 O           2.5369    3.6288    0.0000 O.3     1  UNL1       -0.3912
      2 O           6.8776    0.0843    0.0000 O.3     1  UNL1       -0.4845
      3 O           8.5980   -0.9357    0.0000 O.3     1  UNL1       -0.4884
      4 O           5.1341   -0.8956    0.0000 O.3     1  UNL1       -0.4913
      5 O           8.6187   -2.9429    0.0000 O.2     1  UNL1       -0.4183
      6 O           9.4768   -4.4912    0.0000 O.2     1  UNL1       -0.2452
      7 C           5.1350    2.1288    0.0000 C.3     1  UNL1       -0.0190
      8 C           5.1350    3.1288    0.0000 C.3     1  UNL1       -0.0272
      9 C           4.2690    3.6288    0.0000 C.3     1  UNL1       -0.0056
     10 C           6.0290    1.5942    0.0000 C.3     1  UNL1        0.0197
     11 C           4.2690    1.6288    0.0000 C.3     1  UNL1       -0.0443
     12 C           3.4030    3.1288    0.0000 C.3     1  UNL1        0.0606
     13 C           6.0290    3.6635    0.0000 C.3     1  UNL1       -0.0454
     14 C           3.4030    2.1288    0.0000 C.3     1  UNL1       -0.0258
     15 C           5.1350    1.1288    0.0000 C.3     1  UNL1       -0.0586
     16 C           6.9350    3.1497    0.0000 C.3     1  UNL1       -0.0313
     17 C           6.9350    2.1080    0.0000 C.2     1  UNL1       -0.0698
     18 C           3.7690    4.4949    0.0000 C.3     1  UNL1       -0.0572
     19 C           4.7690    4.4949    0.0000 C.3     1  UNL1       -0.0572
     20 C           6.0174    0.5943    0.0000 C.3     1  UNL1        0.0969
     21 C           7.7991    1.6047    0.0000 C.2     1  UNL1       -0.0991
     22 C           6.8660   -0.9157    0.0000 C.ar    1  UNL1        0.2076
     23 C           7.7262   -1.4256    0.0000 C.ar    1  UNL1        0.2086
     24 C           5.9943   -1.4056    0.0000 C.ar    1  UNL1        0.1660
     25 C           7.7146   -2.4256    0.0000 C.ar    1  UNL1        0.1843
     26 C           5.9827   -2.4055    0.0000 C.ar    1  UNL1       -0.0054
     27 C           6.8429   -2.9155    0.0000 C.ar    1  UNL1        0.0250
     28 C           6.8148   -3.9568    0.0000 C.ar    1  UNL1       -0.0441
     29 C           9.4581   -1.4457    0.0000 C.3     1  UNL1        0.0791
     30 C           4.2623   -1.3856    0.0000 C.3     1  UNL1        0.0790
     31 C           8.6147   -3.9845    0.0000 C.ar    1  UNL1        0.3373
     32 C           7.7067   -4.4949    0.0000 C.ar    1  UNL1        0.0236
     33 H           5.1285    3.9788    0.0000 H       1  UNL1        0.0312
     34 H           6.5629    1.2790    0.0000 H       1  UNL1        0.0384
     35 H           3.8705    1.1539    0.0000 H       1  UNL1        0.0272
     36 H           4.6675    1.1539    0.0000 H       1  UNL1        0.0272
     37 H           3.4030    3.7488    0.0000 H       1  UNL1        0.0599
     38 H           6.4226    4.1425    0.0000 H       1  UNL1        0.0271
     39 H           5.6244    4.1333    0.0000 H       1  UNL1        0.0271
     40 H           2.7924    2.2365    0.0000 H       1  UNL1        0.0290
     41 H           3.1909    1.5462    0.0000 H       1  UNL1        0.0290
     42 H           4.5150    1.1288    0.0000 H       1  UNL1        0.0235
     43 H           5.1350    0.5089    0.0000 H       1  UNL1        0.0235
     44 H           5.7550    1.1288    0.0000 H       1  UNL1        0.0235
     45 H           7.5459    3.0436    0.0000 H       1  UNL1        0.0310
     46 H           7.1441    3.7334    0.0000 H       1  UNL1        0.0310
     47 H           4.3059    4.8049    0.0000 H       1  UNL1        0.0236
     48 H           3.4590    5.0318    0.0000 H       1  UNL1        0.0236
     49 H           3.2320    4.1849    0.0000 H       1  UNL1        0.0236
     50 H           5.3059    4.1849    0.0000 H       1  UNL1        0.0236
     51 H           5.0790    5.0318    0.0000 H       1  UNL1        0.0236
     52 H           4.2320    4.8049    0.0000 H       1  UNL1        0.0236
     53 H           5.4081    0.7090    0.0000 H       1  UNL1        0.0703
     54 H           5.7986    0.0141    0.0000 H       1  UNL1        0.0703
     55 H           2.0000    3.3188    0.0000 H       1  UNL1        0.2098
     56 H           7.7967    0.9847    0.0000 H       1  UNL1        0.0535
     57 H           8.3372    1.9126    0.0000 H       1  UNL1        0.0535
     58 H           5.4422   -2.7093    0.0000 H       1  UNL1        0.0662
     59 H           6.2708   -4.2543    0.0000 H       1  UNL1        0.0627
     60 H           9.1420   -1.9790    0.0000 H       1  UNL1        0.0660
     61 H           9.9914   -1.7618    0.0000 H       1  UNL1        0.0660
     62 H           9.7743   -0.9124    0.0000 H       1  UNL1        0.0660
     63 H           3.9586   -0.8451    0.0000 H       1  UNL1        0.0660
     64 H           3.7218   -1.6894    0.0000 H       1  UNL1        0.0660
     65 H           4.5661   -1.9261    0.0000 H       1  UNL1        0.0660
     66 H           7.6971   -5.1148    0.0000 H       1  UNL1        0.0689
@<TRIPOS>BOND
     1    12     1    1
     2     1    55    1
     3     2    20    1
     4     2    22    1
     5     3    23    1
     6     3    29    1
     7     4    24    1
     8     4    30    1
     9     5    25   ar
    10     5    31   ar
    11     6    31    2
    12     7     8    1
    13     7    10    1
    14     7    11    1
    15     7    15    1
    16     8     9    1
    17     8    13    1
    18     8    33    1
    19     9    12    1
    20     9    18    1
    21     9    19    1
    22    10    17    1
    23    10    20    1
    24    10    34    1
    25    11    14    1
    26    11    35    1
    27    11    36    1
    28    12    14    1
    29    12    37    1
    30    13    16    1
    31    13    38    1
    32    13    39    1
    33    14    40    1
    34    14    41    1
    35    15    42    1
    36    15    43    1
    37    15    44    1
    38    16    17    1
    39    16    45    1
    40    16    46    1
    41    17    21    2
    42    18    47    1
    43    18    48    1
    44    18    49    1
    45    19    50    1
    46    19    51    1
    47    19    52    1
    48    20    53    1
    49    20    54    1
    50    21    56    1
    51    21    57    1
    52    22    23   ar
    53    22    24   ar
    54    23    25   ar
    55    24    26   ar
    56    25    27   ar
    57    26    27   ar
    58    26    58    1
    59    27    28   ar
    60    28    32   ar
    61    28    59    1
    62    29    60    1
    63    29    61    1
    64    29    62    1
    65    30    63    1
    66    30    64    1
    67    30    65    1
    68    31    32   ar
    69    32    66    1
