@<TRIPOS>MOLECULE
IMPHY015343
 13 13 0 0 0
SMALL
GASTEIGER

@<TRIPOS>ATOM
      1 O           2.8090   -1.1739    0.0000 O.3     1  UNL1       -0.4572
      2 O           4.5691   -0.8952    0.0000 O.2     1  UNL1       -0.2453
      3 C           3.3090    0.3649    0.0000 C.2     1  UNL1        0.0328
      4 C           2.0000   -0.5861    0.0000 C.3     1  UNL1        0.1118
      5 C           2.3090    0.3649    0.0000 C.2     1  UNL1       -0.0373
      6 C           3.6180   -0.5861    0.0000 C.2     1  UNL1        0.3350
      7 C           3.8968    1.1739    0.0000 C.3     1  UNL1       -0.0331
      8 H           1.4336   -0.3340    0.0000 H       1  UNL1        0.0743
      9 H           1.6900   -1.1231    0.0000 H       1  UNL1        0.0743
     10 H           1.9446    0.8665    0.0000 H       1  UNL1        0.0610
     11 H           4.3984    0.8095    0.0000 H       1  UNL1        0.0280
     12 H           4.2612    1.6755    0.0000 H       1  UNL1        0.0280
     13 H           3.3952    1.5384    0.0000 H       1  UNL1        0.0280
@<TRIPOS>BOND
     1     1     4    1
     2     1     6    1
     3     2     6    2
     4     3     5    2
     5     3     6    1
     6     3     7    1
     7     4     5    1
     8     4     8    1
     9     4     9    1
    10     5    10    1
    11     7    11    1
    12     7    12    1
    13     7    13    1
