@<TRIPOS>MOLECULE
IMPHY001640
 132 140 0 0 0
SMALL
GASTEIGER

@<TRIPOS>ATOM
      1 O          10.8882    4.0403    0.0000 O.3     1  UNL1       -0.3448
      2 O           9.1158    4.9351    0.0000 O.3     1  UNL1       -0.3480
      3 O           9.4651   -4.2038    0.0000 O.3     1  UNL1       -0.3454
      4 O           7.7331   -4.2038    0.0000 O.3     1  UNL1       -0.3405
      5 O           9.4651   -6.2038    0.0000 O.3     1  UNL1       -0.3841
      6 O           7.7331   -7.2038    0.0000 O.3     1  UNL1       -0.3864
      7 O           6.0010   -6.2038    0.0000 O.3     1  UNL1       -0.3402
      8 O           6.0010   -3.2038    0.0000 O.3     1  UNL1       -0.3461
      9 O           5.1350   -4.7038    0.0000 O.3     1  UNL1       -0.3461
     10 O           4.2690   -3.2038    0.0000 O.3     1  UNL1       -0.3431
     11 O           4.2690   -7.2038    0.0000 O.3     1  UNL1       -0.3841
     12 O           2.5369   -6.2038    0.0000 O.3     1  UNL1       -0.3864
     13 O           6.0010   -1.2038    0.0000 O.3     1  UNL1       -0.3841
     14 O           2.5369   -4.2038    0.0000 O.3     1  UNL1       -0.3869
     15 O           4.2690   -0.2037    0.0000 O.3     1  UNL1       -0.3864
     16 O           2.5369   -1.2038    0.0000 O.3     1  UNL1       -0.3866
     17 C           9.4944    1.9931    0.0000 C.3     1  UNL1       -0.0233
     18 C          10.3623    1.4965    0.0000 C.3     1  UNL1       -0.0298
     19 C          10.3662    0.4965    0.0000 C.3     1  UNL1       -0.0343
     20 C           9.6999    2.9657    0.0000 C.3     1  UNL1       -0.0015
     21 C           9.5021   -0.0069    0.0000 C.3     1  UNL1       -0.0323
     22 C          10.6882    3.0726    0.0000 C.3     1  UNL1        0.0660
     23 C           9.4901   -1.0484    0.0000 C.3     1  UNL1       -0.0260
     24 C          11.0968    2.1664    0.0000 C.3     1  UNL1       -0.0226
     25 C           8.6303    1.4898    0.0000 C.3     1  UNL1       -0.0467
     26 C           8.6342    0.4898    0.0000 C.3     1  UNL1       -0.0489
     27 C           9.2976    3.8683    0.0000 C.3     1  UNL1        0.0160
     28 C          10.3901   -1.5727    0.0000 C.3     1  UNL1       -0.0330
     29 C          11.2781   -0.0069    0.0000 C.3     1  UNL1       -0.0494
     30 C          10.0305    4.5311    0.0000 C.3     1  UNL1        0.1732
     31 C          11.2902   -1.0484    0.0000 C.3     1  UNL1       -0.0494
     32 C           8.6264    2.4898    0.0000 C.3     1  UNL1       -0.0590
     33 C           8.5402   -1.5727    0.0000 C.3     1  UNL1       -0.0448
     34 C          10.4027   -2.6576    0.0000 C.3     1  UNL1       -0.0232
     35 C           8.6260   -0.5451    0.0000 C.3     1  UNL1       -0.0590
     36 C           8.5276   -2.6576    0.0000 C.3     1  UNL1       -0.0260
     37 C           8.3192    4.0750    0.0000 C.3     1  UNL1       -0.0572
     38 C           9.4651   -3.2038    0.0000 C.3     1  UNL1        0.0621
     39 C          10.8378    5.1213    0.0000 C.3     1  UNL1        0.0020
     40 C          10.7303    6.1155    0.0000 C.3     1  UNL1       -0.0435
     41 C           9.0083    5.9293    0.0000 C.3     1  UNL1        0.0535
     42 C           9.8155    6.5195    0.0000 C.3     1  UNL1       -0.0201
     43 C           9.7080    7.5138    0.0000 C.3     1  UNL1       -0.0603
     44 C           8.5991   -4.7038    0.0000 C.3     1  UNL1        0.1882
     45 C           8.5991   -5.7038    0.0000 C.3     1  UNL1        0.1341
     46 C           7.7331   -6.2038    0.0000 C.3     1  UNL1        0.1144
     47 C           6.8671   -4.7038    0.0000 C.3     1  UNL1        0.1137
     48 C           6.8671   -5.7038    0.0000 C.3     1  UNL1        0.1184
     49 C           6.0010   -4.2038    0.0000 C.3     1  UNL1        0.0796
     50 C           5.1350   -5.7038    0.0000 C.3     1  UNL1        0.1880
     51 C           4.2690   -6.2038    0.0000 C.3     1  UNL1        0.1341
     52 C           5.1350   -2.7038    0.0000 C.3     1  UNL1        0.1879
     53 C           3.4030   -5.7038    0.0000 C.3     1  UNL1        0.1137
     54 C           5.1350   -1.7038    0.0000 C.3     1  UNL1        0.1341
     55 C           4.2690   -4.2038    0.0000 C.3     1  UNL1        0.0792
     56 C           3.4030   -4.7038    0.0000 C.3     1  UNL1        0.1069
     57 C           4.2690   -1.2038    0.0000 C.3     1  UNL1        0.1140
     58 C           3.4030   -2.7038    0.0000 C.3     1  UNL1        0.0873
     59 C           3.4030   -1.7038    0.0000 C.3     1  UNL1        0.1095
     60 C           2.5369   -3.2038    0.0000 C.3     1  UNL1       -0.0361
     61 H          10.9300    1.2472    0.0000 H       1  UNL1        0.0310
     62 H          10.8995    0.8127    0.0000 H       1  UNL1        0.0306
     63 H           9.0833    2.9004    0.0000 H       1  UNL1        0.0335
     64 H          10.0378   -0.3189    0.0000 H       1  UNL1        0.0309
     65 H          11.3044    3.1406    0.0000 H       1  UNL1        0.0600
     66 H          11.4642    1.6670    0.0000 H       1  UNL1        0.0293
     67 H          11.6321    2.4792    0.0000 H       1  UNL1        0.0293
     68 H           8.4160    2.0716    0.0000 H       1  UNL1        0.0271
     69 H           8.0201    1.3798    0.0000 H       1  UNL1        0.0271
     70 H           8.0232    0.5951    0.0000 H       1  UNL1        0.0268
     71 H           8.4244   -0.0936    0.0000 H       1  UNL1        0.0268
     72 H           8.9078    3.3862    0.0000 H       1  UNL1        0.0354
     73 H          10.9294   -1.8786    0.0000 H       1  UNL1        0.0307
     74 H          11.8902   -0.1059    0.0000 H       1  UNL1        0.0268
     75 H          11.4804    0.5792    0.0000 H       1  UNL1        0.0268
     76 H          11.5060   -1.6297    0.0000 H       1  UNL1        0.0268
     77 H          11.8998   -0.9353    0.0000 H       1  UNL1        0.0268
     78 H           8.9344    3.0279    0.0000 H       1  UNL1        0.0235
     79 H           8.0883    2.7977    0.0000 H       1  UNL1        0.0235
     80 H           8.3185    1.9517    0.0000 H       1  UNL1        0.0235
     81 H           8.3379   -0.9866    0.0000 H       1  UNL1        0.0271
     82 H           7.9281   -1.6717    0.0000 H       1  UNL1        0.0271
     83 H          10.6185   -3.2389    0.0000 H       1  UNL1        0.0293
     84 H          11.0123   -2.5445    0.0000 H       1  UNL1        0.0293
     85 H           8.9380   -0.0093    0.0000 H       1  UNL1        0.0235
     86 H           8.0902   -0.2330    0.0000 H       1  UNL1        0.0235
     87 H           8.3139   -1.0808    0.0000 H       1  UNL1        0.0235
     88 H           7.9180   -2.5445    0.0000 H       1  UNL1        0.0290
     89 H           8.3118   -3.2389    0.0000 H       1  UNL1        0.0290
     90 H           8.4473    4.6816    0.0000 H       1  UNL1        0.0234
     91 H           7.7125    4.2032    0.0000 H       1  UNL1        0.0234
     92 H           8.1910    3.4684    0.0000 H       1  UNL1        0.0234
     93 H          10.0027   -3.5127    0.0000 H       1  UNL1        0.0597
     94 H          11.1112    4.5649    0.0000 H       1  UNL1        0.0317
     95 H          11.4333    5.2940    0.0000 H       1  UNL1        0.0317
     96 H          11.3489    6.0741    0.0000 H       1  UNL1        0.0270
     97 H          10.8785    6.7176    0.0000 H       1  UNL1        0.0270
     98 H           8.7348    6.4858    0.0000 H       1  UNL1        0.0563
     99 H           8.4128    5.7567    0.0000 H       1  UNL1        0.0563
    100 H          10.3160    6.8855    0.0000 H       1  UNL1        0.0320
    101 H          10.3244    7.5804    0.0000 H       1  UNL1        0.0233
    102 H           9.6414    8.1302    0.0000 H       1  UNL1        0.0233
    103 H           9.0916    7.4471    0.0000 H       1  UNL1        0.0233
    104 H           8.5991   -4.0838    0.0000 H       1  UNL1        0.0937
    105 H           8.5991   -6.3238    0.0000 H       1  UNL1        0.0671
    106 H           7.1962   -6.5138    0.0000 H       1  UNL1        0.0648
    107 H           6.8671   -4.0838    0.0000 H       1  UNL1        0.0647
    108 H           6.3301   -5.3938    0.0000 H       1  UNL1        0.0651
    109 H          10.0021   -5.8938    0.0000 H       1  UNL1        0.2101
    110 H           5.3905   -4.0961    0.0000 H       1  UNL1        0.0587
    111 H           5.7890   -4.7864    0.0000 H       1  UNL1        0.0587
    112 H           8.2700   -7.5138    0.0000 H       1  UNL1        0.2100
    113 H           5.1350   -6.3238    0.0000 H       1  UNL1        0.0937
    114 H           3.7320   -6.5138    0.0000 H       1  UNL1        0.0671
    115 H           5.1350   -3.3238    0.0000 H       1  UNL1        0.0937
    116 H           2.8660   -5.3938    0.0000 H       1  UNL1        0.0647
    117 H           5.1350   -1.0838    0.0000 H       1  UNL1        0.0671
    118 H           4.6675   -3.7288    0.0000 H       1  UNL1        0.0587
    119 H           3.8705   -3.7288    0.0000 H       1  UNL1        0.0587
    120 H           3.4030   -4.0838    0.0000 H       1  UNL1        0.0643
    121 H           3.7320   -0.8937    0.0000 H       1  UNL1        0.0648
    122 H           3.7320   -7.5138    0.0000 H       1  UNL1        0.2101
    123 H           3.4030   -3.3238    0.0000 H       1  UNL1        0.0621
    124 H           2.8660   -2.0138    0.0000 H       1  UNL1        0.0646
    125 H           2.0000   -5.8938    0.0000 H       1  UNL1        0.2100
    126 H           6.0010   -0.5837    0.0000 H       1  UNL1        0.2101
    127 H           2.0000   -4.5138    0.0000 H       1  UNL1        0.2100
    128 H           2.2269   -2.6668    0.0000 H       1  UNL1        0.0255
    129 H           2.0000   -3.5138    0.0000 H       1  UNL1        0.0255
    130 H           2.8469   -3.7407    0.0000 H       1  UNL1        0.0255
    131 H           3.7320    0.1063    0.0000 H       1  UNL1        0.2100
    132 H           2.0000   -1.5138    0.0000 H       1  UNL1        0.2100
@<TRIPOS>BOND
     1     1    22    1
     2     1    30    1
     3     2    30    1
     4     2    41    1
     5     3    38    1
     6     3    44    1
     7     4    44    1
     8     4    47    1
     9     5    45    1
    10     5   109    1
    11     6    46    1
    12     6   112    1
    13     7    48    1
    14     7    50    1
    15     8    49    1
    16     8    52    1
    17     9    50    1
    18     9    55    1
    19    10    52    1
    20    10    58    1
    21    11    51    1
    22    11   122    1
    23    12    53    1
    24    12   125    1
    25    13    54    1
    26    13   126    1
    27    14    56    1
    28    14   127    1
    29    15    57    1
    30    15   131    1
    31    16    59    1
    32    16   132    1
    33    17    18    1
    34    17    20    1
    35    17    25    1
    36    17    32    1
    37    18    19    1
    38    18    24    1
    39    18    61    1
    40    19    21    1
    41    19    29    1
    42    19    62    1
    43    20    22    1
    44    20    27    1
    45    20    63    1
    46    21    23    1
    47    21    26    1
    48    21    64    1
    49    22    24    1
    50    22    65    1
    51    23    28    1
    52    23    33    1
    53    23    35    1
    54    24    66    1
    55    24    67    1
    56    25    26    1
    57    25    68    1
    58    25    69    1
    59    26    70    1
    60    26    71    1
    61    27    30    1
    62    27    37    1
    63    27    72    1
    64    28    31    1
    65    28    34    1
    66    28    73    1
    67    29    31    1
    68    29    74    1
    69    29    75    1
    70    30    39    1
    71    31    76    1
    72    31    77    1
    73    32    78    1
    74    32    79    1
    75    32    80    1
    76    33    36    1
    77    33    81    1
    78    33    82    1
    79    34    38    1
    80    34    83    1
    81    34    84    1
    82    35    85    1
    83    35    86    1
    84    35    87    1
    85    36    38    1
    86    36    88    1
    87    36    89    1
    88    37    90    1
    89    37    91    1
    90    37    92    1
    91    38    93    1
    92    39    40    1
    93    39    94    1
    94    39    95    1
    95    40    42    1
    96    40    96    1
    97    40    97    1
    98    41    42    1
    99    41    98    1
   100    41    99    1
   101    42    43    1
   102    42   100    1
   103    43   101    1
   104    43   102    1
   105    43   103    1
   106    44    45    1
   107    44   104    1
   108    45    46    1
   109    45   105    1
   110    46    48    1
   111    46   106    1
   112    47    48    1
   113    47    49    1
   114    47   107    1
   115    48   108    1
   116    49   110    1
   117    49   111    1
   118    50    51    1
   119    50   113    1
   120    51    53    1
   121    51   114    1
   122    52    54    1
   123    52   115    1
   124    53    56    1
   125    53   116    1
   126    54    57    1
   127    54   117    1
   128    55    56    1
   129    55   118    1
   130    55   119    1
   131    56   120    1
   132    57    59    1
   133    57   121    1
   134    58    59    1
   135    58    60    1
   136    58   123    1
   137    59   124    1
   138    60   128    1
   139    60   129    1
   140    60   130    1
