@<TRIPOS>MOLECULE
IMPHY015951
 57 57 0 0 0
SMALL
GASTEIGER

@<TRIPOS>ATOM
      1 O           3.7320   -3.5000    0.0000 O.3     1  UNL1       -0.4612
      2 O           2.0000   -3.5000    0.0000 O.2     1  UNL1       -0.2450
      3 C           6.3301    2.0000    0.0000 C.3     1  UNL1       -0.0531
      4 C           7.1962    2.5000    0.0000 C.3     1  UNL1       -0.0531
      5 C           6.3301    1.0000    0.0000 C.3     1  UNL1       -0.0531
      6 C           7.1962    3.5000    0.0000 C.3     1  UNL1       -0.0531
      7 C           5.4641    0.5000    0.0000 C.3     1  UNL1       -0.0531
      8 C           8.0622    4.0000    0.0000 C.3     1  UNL1       -0.0531
      9 C           5.4641   -0.5000    0.0000 C.3     1  UNL1       -0.0530
     10 C           8.0622    5.0000    0.0000 C.3     1  UNL1       -0.0531
     11 C           4.5981   -1.0000    0.0000 C.3     1  UNL1       -0.0500
     12 C           8.9282    5.5000    0.0000 C.3     1  UNL1       -0.0533
     13 C           4.5981   -2.0000    0.0000 C.3     1  UNL1       -0.0185
     14 C           8.9282    6.5000    0.0000 C.3     1  UNL1       -0.0559
     15 C           3.7320   -2.5000    0.0000 C.3     1  UNL1        0.0928
     16 C           9.7942    7.0000    0.0000 C.3     1  UNL1       -0.0653
     17 C           2.8660   -4.0000    0.0000 C.2     1  UNL1        0.3392
     18 C           2.8660   -5.0000    0.0000 C.ar    1  UNL1        0.0590
     19 C           2.0000   -5.5000    0.0000 C.ar    1  UNL1       -0.0478
     20 C           3.7320   -5.5000    0.0000 C.ar    1  UNL1       -0.0478
     21 C           2.0000   -6.5000    0.0000 C.ar    1  UNL1       -0.0610
     22 C           3.7320   -6.5000    0.0000 C.ar    1  UNL1       -0.0610
     23 C           2.8660   -7.0000    0.0000 C.ar    1  UNL1       -0.0617
     24 H           6.1181    2.5826    0.0000 H       1  UNL1        0.0265
     25 H           5.7196    1.8923    0.0000 H       1  UNL1        0.0265
     26 H           7.4082    1.9174    0.0000 H       1  UNL1        0.0265
     27 H           7.8067    2.6077    0.0000 H       1  UNL1        0.0265
     28 H           6.5422    0.4174    0.0000 H       1  UNL1        0.0265
     29 H           6.9407    1.1077    0.0000 H       1  UNL1        0.0265
     30 H           6.9841    4.0826    0.0000 H       1  UNL1        0.0265
     31 H           6.5856    3.3923    0.0000 H       1  UNL1        0.0265
     32 H           5.2520    1.0826    0.0000 H       1  UNL1        0.0265
     33 H           4.8535    0.3923    0.0000 H       1  UNL1        0.0265
     34 H           8.2742    3.4174    0.0000 H       1  UNL1        0.0265
     35 H           8.6728    4.1077    0.0000 H       1  UNL1        0.0265
     36 H           5.6762   -1.0826    0.0000 H       1  UNL1        0.0265
     37 H           6.0747   -0.3923    0.0000 H       1  UNL1        0.0265
     38 H           7.8501    5.5826    0.0000 H       1  UNL1        0.0265
     39 H           7.4516    4.8923    0.0000 H       1  UNL1        0.0265
     40 H           4.3860   -0.4174    0.0000 H       1  UNL1        0.0266
     41 H           3.9875   -1.1077    0.0000 H       1  UNL1        0.0266
     42 H           9.1403    4.9174    0.0000 H       1  UNL1        0.0265
     43 H           9.5388    5.6077    0.0000 H       1  UNL1        0.0265
     44 H           4.8101   -2.5826    0.0000 H       1  UNL1        0.0298
     45 H           5.2087   -1.8923    0.0000 H       1  UNL1        0.0298
     46 H           8.7162    7.0826    0.0000 H       1  UNL1        0.0263
     47 H           8.3176    6.3923    0.0000 H       1  UNL1        0.0263
     48 H           3.5200   -1.9174    0.0000 H       1  UNL1        0.0697
     49 H           3.1215   -2.6077    0.0000 H       1  UNL1        0.0697
     50 H          10.1042    6.4631    0.0000 H       1  UNL1        0.0230
     51 H          10.3312    7.3100    0.0000 H       1  UNL1        0.0230
     52 H           9.4842    7.5369    0.0000 H       1  UNL1        0.0230
     53 H           1.4631   -5.1900    0.0000 H       1  UNL1        0.0626
     54 H           4.2690   -5.1900    0.0000 H       1  UNL1        0.0626
     55 H           1.4631   -6.8100    0.0000 H       1  UNL1        0.0618
     56 H           4.2690   -6.8100    0.0000 H       1  UNL1        0.0618
     57 H           2.8660   -7.6200    0.0000 H       1  UNL1        0.0618
@<TRIPOS>BOND
     1     1    15    1
     2     1    17    1
     3     2    17    2
     4     3     4    1
     5     3     5    1
     6     3    24    1
     7     3    25    1
     8     4     6    1
     9     4    26    1
    10     4    27    1
    11     5     7    1
    12     5    28    1
    13     5    29    1
    14     6     8    1
    15     6    30    1
    16     6    31    1
    17     7     9    1
    18     7    32    1
    19     7    33    1
    20     8    10    1
    21     8    34    1
    22     8    35    1
    23     9    11    1
    24     9    36    1
    25     9    37    1
    26    10    12    1
    27    10    38    1
    28    10    39    1
    29    11    13    1
    30    11    40    1
    31    11    41    1
    32    12    14    1
    33    12    42    1
    34    12    43    1
    35    13    15    1
    36    13    44    1
    37    13    45    1
    38    14    16    1
    39    14    46    1
    40    14    47    1
    41    15    48    1
    42    15    49    1
    43    16    50    1
    44    16    51    1
    45    16    52    1
    46    17    18    1
    47    18    19   ar
    48    18    20   ar
    49    19    21   ar
    50    19    53    1
    51    20    22   ar
    52    20    54    1
    53    21    23   ar
    54    21    55    1
    55    22    23   ar
    56    22    56    1
    57    23    57    1
