@<TRIPOS>MOLECULE
IMPHY008786
 62 67 0 0 0
SMALL
GASTEIGER

@<TRIPOS>ATOM
      1 O           4.6341    0.7005    0.0000 O.3     1  UNL1       -0.4944
      2 O           8.1860   -0.3205    0.0000 O.3     1  UNL1       -0.5060
      3 O           6.4158    3.7592    0.0000 O.3     1  UNL1       -0.5060
      4 O           6.4043   -3.3792    0.0000 O.3     1  UNL1       -0.5060
      5 O           2.0038   -3.8897    0.0000 O.3     1  UNL1       -0.4951
      6 O          10.8162    4.2697    0.0000 O.3     1  UNL1       -0.5068
      7 C           7.2982    1.2246    0.0000 C.ar    1  UNL1       -0.0245
      8 C           5.5219   -0.8446    0.0000 C.ar    1  UNL1       -0.0245
      9 C           6.4043    0.6900    0.0000 C.ar    1  UNL1        0.0315
     10 C           6.4158   -0.3100    0.0000 C.ar    1  UNL1        0.0313
     11 C           4.6559   -0.3446    0.0000 C.3     1  UNL1       -0.0223
     12 C           8.1642    0.7246    0.0000 C.3     1  UNL1       -0.0223
     13 C           7.2982    2.2246    0.0000 C.ar    1  UNL1        0.0278
     14 C           5.5219   -1.8446    0.0000 C.ar    1  UNL1        0.0278
     15 C           3.7898   -0.8446    0.0000 C.3     1  UNL1       -0.0230
     16 C           9.0302    1.2246    0.0000 C.3     1  UNL1       -0.0230
     17 C           4.6559   -2.3446    0.0000 C.ar    1  UNL1       -0.0107
     18 C           8.1642    2.7246    0.0000 C.ar    1  UNL1       -0.0107
     19 C           3.7898   -1.8446    0.0000 C.ar    1  UNL1       -0.0358
     20 C           9.0302    2.2246    0.0000 C.ar    1  UNL1       -0.0358
     21 C           5.4982    1.2038    0.0000 C.ar    1  UNL1        0.1316
     22 C           7.3219   -0.8238    0.0000 C.ar    1  UNL1        0.1284
     23 C           6.4043    2.7593    0.0000 C.ar    1  UNL1        0.1283
     24 C           6.4158   -2.3793    0.0000 C.ar    1  UNL1        0.1283
     25 C           5.4982    2.2454    0.0000 C.ar    1  UNL1        0.0228
     26 C           7.3219   -1.8654    0.0000 C.ar    1  UNL1        0.0225
     27 C           2.8798   -2.3515    0.0000 C.ar    1  UNL1       -0.0162
     28 C           4.6719   -3.3861    0.0000 C.ar    1  UNL1       -0.0502
     29 C           8.1482    3.7661    0.0000 C.ar    1  UNL1       -0.0502
     30 C           9.9403    2.7315    0.0000 C.ar    1  UNL1       -0.0164
     31 C           2.8718   -3.3931    0.0000 C.ar    1  UNL1        0.1204
     32 C           3.7739   -3.9139    0.0000 C.ar    1  UNL1       -0.0194
     33 C           9.9483    3.7731    0.0000 C.ar    1  UNL1        0.1172
     34 C           9.0462    4.2939    0.0000 C.ar    1  UNL1       -0.0196
     35 C           3.7662    1.1971    0.0000 C.3     1  UNL1        0.0788
     36 C           2.0000   -4.8897    0.0000 C.3     1  UNL1        0.0788
     37 H           5.0544    0.1303    0.0000 H       1  UNL1        0.0317
     38 H           4.2573    0.1303    0.0000 H       1  UNL1        0.0317
     39 H           7.7657    0.2497    0.0000 H       1  UNL1        0.0317
     40 H           8.5628    0.2497    0.0000 H       1  UNL1        0.0317
     41 H           3.5778   -0.2620    0.0000 H       1  UNL1        0.0317
     42 H           3.1792   -0.9523    0.0000 H       1  UNL1        0.0317
     43 H           9.2423    0.6420    0.0000 H       1  UNL1        0.0317
     44 H           9.6408    1.3323    0.0000 H       1  UNL1        0.0317
     45 H           4.9625    2.5575    0.0000 H       1  UNL1        0.0691
     46 H           7.8576   -2.1775    0.0000 H       1  UNL1        0.0691
     47 H           2.3465   -2.0353    0.0000 H       1  UNL1        0.0657
     48 H           5.2124   -3.6899    0.0000 H       1  UNL1        0.0625
     49 H           7.6077    4.0699    0.0000 H       1  UNL1        0.0625
     50 H          10.4736    2.4153    0.0000 H       1  UNL1        0.0657
     51 H           3.7763   -4.5339    0.0000 H       1  UNL1        0.0654
     52 H           9.0438    4.9139    0.0000 H       1  UNL1        0.0654
     53 H           8.7241   -0.6284    0.0000 H       1  UNL1        0.2922
     54 H           5.8825    4.0754    0.0000 H       1  UNL1        0.2922
     55 H           6.9376   -3.6954    0.0000 H       1  UNL1        0.2922
     56 H           4.0741    1.7353    0.0000 H       1  UNL1        0.0660
     57 H           3.2280    1.5051    0.0000 H       1  UNL1        0.0660
     58 H           3.4582    0.6590    0.0000 H       1  UNL1        0.0660
     59 H          10.8186    4.8897    0.0000 H       1  UNL1        0.2921
     60 H           1.3800   -4.8873    0.0000 H       1  UNL1        0.0660
     61 H           1.9976   -5.5097    0.0000 H       1  UNL1        0.0660
     62 H           2.6200   -4.8921    0.0000 H       1  UNL1        0.0660
@<TRIPOS>BOND
     1     1    21    1
     2     1    35    1
     3     2    22    1
     4     2    53    1
     5     3    23    1
     6     3    54    1
     7     4    24    1
     8     4    55    1
     9     5    31    1
    10     5    36    1
    11     6    33    1
    12     6    59    1
    13     7     9   ar
    14     7    12    1
    15     7    13   ar
    16     8    10   ar
    17     8    11    1
    18     8    14   ar
    19     9    10    1
    20     9    21   ar
    21    10    22   ar
    22    11    15    1
    23    11    37    1
    24    11    38    1
    25    12    16    1
    26    12    39    1
    27    12    40    1
    28    13    18    1
    29    13    23   ar
    30    14    17    1
    31    14    24   ar
    32    15    19    1
    33    15    41    1
    34    15    42    1
    35    16    20    1
    36    16    43    1
    37    16    44    1
    38    17    19   ar
    39    17    28   ar
    40    18    20   ar
    41    18    29   ar
    42    19    27   ar
    43    20    30   ar
    44    21    25   ar
    45    22    26   ar
    46    23    25   ar
    47    24    26   ar
    48    25    45    1
    49    26    46    1
    50    27    31   ar
    51    27    47    1
    52    28    32   ar
    53    28    48    1
    54    29    34   ar
    55    29    49    1
    56    30    33   ar
    57    30    50    1
    58    31    32   ar
    59    32    51    1
    60    33    34   ar
    61    34    52    1
    62    35    56    1
    63    35    57    1
    64    35    58    1
    65    36    60    1
    66    36    61    1
    67    36    62    1
