@<TRIPOS>MOLECULE
IMPHY000053
 44 45 0 0 0
SMALL
GASTEIGER

@<TRIPOS>ATOM
      1 O           2.5369    1.6550    0.0000 O.3     1  UNL1       -0.5065
      2 O           9.4651   -1.3450    0.0000 O.3     1  UNL1       -0.5066
      3 O           7.7331   -4.3450    0.0000 O.3     1  UNL1       -0.5066
      4 C           6.0010   -0.3450    0.0000 C.3     1  UNL1       -0.0237
      5 C           6.0010   -1.3450    0.0000 C.3     1  UNL1       -0.0235
      6 C           5.1350    0.1550    0.0000 C.ar    1  UNL1       -0.0466
      7 C           4.2690    1.6550    0.0000 C.ar    1  UNL1       -0.0020
      8 C           5.1350    1.1550    0.0000 C.ar    1  UNL1       -0.0516
      9 C           6.8671   -1.8450    0.0000 C.ar    1  UNL1       -0.0402
     10 C           4.2690    2.6550    0.0000 C.3     1  UNL1       -0.0058
     11 C           4.2690   -0.3450    0.0000 C.ar    1  UNL1       -0.0551
     12 C           3.4030    1.1550    0.0000 C.ar    1  UNL1        0.1203
     13 C           3.4030    0.1550    0.0000 C.ar    1  UNL1       -0.0196
     14 C           6.8671   -2.8450    0.0000 C.ar    1  UNL1       -0.0168
     15 C           7.7331   -1.3450    0.0000 C.ar    1  UNL1       -0.0168
     16 C           5.1350    3.1550    0.0000 C.2     1  UNL1       -0.0809
     17 C           8.5991   -1.8450    0.0000 C.ar    1  UNL1        0.1206
     18 C           7.7331   -3.3450    0.0000 C.ar    1  UNL1        0.1206
     19 C           5.1350    4.1550    0.0000 C.2     1  UNL1       -0.0793
     20 C           8.5991   -2.8450    0.0000 C.ar    1  UNL1        0.0213
     21 C           6.0010    4.6550    0.0000 C.3     1  UNL1       -0.0440
     22 C           4.2690    4.6550    0.0000 C.3     1  UNL1       -0.0440
     23 H           6.6116   -0.4527    0.0000 H       1  UNL1        0.0316
     24 H           6.2131    0.2376    0.0000 H       1  UNL1        0.0316
     25 H           5.3905   -1.2373    0.0000 H       1  UNL1        0.0316
     26 H           5.7890   -1.9276    0.0000 H       1  UNL1        0.0316
     27 H           5.6720    1.4650    0.0000 H       1  UNL1        0.0624
     28 H           4.0569    3.2376    0.0000 H       1  UNL1        0.0357
     29 H           3.6584    2.5473    0.0000 H       1  UNL1        0.0357
     30 H           4.2690   -0.9650    0.0000 H       1  UNL1        0.0621
     31 H           2.8660   -0.1550    0.0000 H       1  UNL1        0.0654
     32 H           6.3301   -3.1550    0.0000 H       1  UNL1        0.0657
     33 H           7.7331   -0.7250    0.0000 H       1  UNL1        0.0657
     34 H           5.6720    2.8450    0.0000 H       1  UNL1        0.0575
     35 H           9.1360   -3.1550    0.0000 H       1  UNL1        0.0691
     36 H           2.0000    1.3450    0.0000 H       1  UNL1        0.2921
     37 H           4.5790    5.1919    0.0000 H       1  UNL1        0.0274
     38 H           3.7320    4.9650    0.0000 H       1  UNL1        0.0274
     39 H           3.9590    4.1181    0.0000 H       1  UNL1        0.0274
     40 H           6.3110    4.1181    0.0000 H       1  UNL1        0.0274
     41 H           6.5380    4.9650    0.0000 H       1  UNL1        0.0274
     42 H           5.6910    5.1919    0.0000 H       1  UNL1        0.0274
     43 H          10.0021   -1.6550    0.0000 H       1  UNL1        0.2921
     44 H           8.2700   -4.6550    0.0000 H       1  UNL1        0.2921
@<TRIPOS>BOND
     1     1    12    1
     2     1    36    1
     3     2    17    1
     4     2    43    1
     5     3    18    1
     6     3    44    1
     7     4     5    1
     8     4     6    1
     9     4    23    1
    10     4    24    1
    11     5     9    1
    12     5    25    1
    13     5    26    1
    14     6     8   ar
    15     6    11   ar
    16     7     8   ar
    17     7    10    1
    18     7    12   ar
    19     8    27    1
    20     9    14   ar
    21     9    15   ar
    22    10    16    1
    23    10    28    1
    24    10    29    1
    25    11    13   ar
    26    11    30    1
    27    12    13   ar
    28    13    31    1
    29    14    18   ar
    30    14    32    1
    31    15    17   ar
    32    15    33    1
    33    16    19    2
    34    16    34    1
    35    17    20   ar
    36    18    20   ar
    37    19    21    1
    38    19    22    1
    39    20    35    1
    40    21    40    1
    41    21    41    1
    42    21    42    1
    43    22    37    1
    44    22    38    1
    45    22    39    1
