@<TRIPOS>MOLECULE
IMPHY015914
 27 27 0 0 0
SMALL
GASTEIGER

@<TRIPOS>ATOM
      1 O           3.7320    1.2500    0.0000 O.3     1  UNL1       -0.4644
      2 O           4.5981   -0.2500    0.0000 O.2     1  UNL1       -0.2505
      3 C           2.8660   -0.2500    0.0000 C.3     1  UNL1        0.0700
      4 C           4.5981    2.7500    0.0000 C.3     1  UNL1       -0.0214
      5 C           2.8660   -1.2500    0.0000 C.ar    1  UNL1       -0.0368
      6 C           4.5981    1.7500    0.0000 C.3     1  UNL1        0.0922
      7 C           3.7320    0.2500    0.0000 C.2     1  UNL1        0.3114
      8 C           5.4641    3.2500    0.0000 C.3     1  UNL1       -0.0622
      9 C           2.0000   -1.7500    0.0000 C.ar    1  UNL1       -0.0581
     10 C           3.7320   -1.7500    0.0000 C.ar    1  UNL1       -0.0581
     11 C           2.0000   -2.7500    0.0000 C.ar    1  UNL1       -0.0615
     12 C           3.7320   -2.7500    0.0000 C.ar    1  UNL1       -0.0615
     13 C           2.8660   -3.2500    0.0000 C.ar    1  UNL1       -0.0617
     14 H           2.6540    0.3326    0.0000 H       1  UNL1        0.0426
     15 H           2.2554   -0.3577    0.0000 H       1  UNL1        0.0426
     16 H           4.3860    3.3326    0.0000 H       1  UNL1        0.0295
     17 H           3.9875    2.6423    0.0000 H       1  UNL1        0.0295
     18 H           4.8101    1.1674    0.0000 H       1  UNL1        0.0697
     19 H           5.2087    1.8577    0.0000 H       1  UNL1        0.0697
     20 H           5.7741    2.7131    0.0000 H       1  UNL1        0.0231
     21 H           6.0010    3.5600    0.0000 H       1  UNL1        0.0231
     22 H           5.1541    3.7869    0.0000 H       1  UNL1        0.0231
     23 H           1.4631   -1.4400    0.0000 H       1  UNL1        0.0620
     24 H           4.2690   -1.4400    0.0000 H       1  UNL1        0.0620
     25 H           1.4631   -3.0600    0.0000 H       1  UNL1        0.0618
     26 H           4.2690   -3.0600    0.0000 H       1  UNL1        0.0618
     27 H           2.8660   -3.8700    0.0000 H       1  UNL1        0.0618
@<TRIPOS>BOND
     1     1     6    1
     2     1     7    1
     3     2     7    2
     4     3     5    1
     5     3     7    1
     6     3    14    1
     7     3    15    1
     8     4     6    1
     9     4     8    1
    10     4    16    1
    11     4    17    1
    12     5     9   ar
    13     5    10   ar
    14     6    18    1
    15     6    19    1
    16     8    20    1
    17     8    21    1
    18     8    22    1
    19     9    11   ar
    20     9    23    1
    21    10    12   ar
    22    10    24    1
    23    11    13   ar
    24    11    25    1
    25    12    13   ar
    26    12    26    1
    27    13    27    1
