@<TRIPOS>MOLECULE
IMPHY013554
 43 46 0 0 0
SMALL
GASTEIGER

@<TRIPOS>ATOM
      1 O           5.5301    0.7500    0.0000 O.3     1  UNL1       -0.5054
      2 O           8.1282   -1.7500    0.0000 O.3     1  UNL1       -0.5054
      3 O           3.7817    0.7846    0.0000 O.3     1  UNL1       -0.5060
      4 O           9.8766    2.2846    0.0000 O.2     1  UNL1       -0.2870
      5 O           9.8766   -1.7846    0.0000 O.2     1  UNL1       -0.2871
      6 C           6.3961   -0.7500    0.0000 C.ar    1  UNL1        0.0278
      7 C           7.2622   -0.2500    0.0000 C.ar    1  UNL1        0.0278
      8 C           4.6641   -0.7500    0.0000 C.ar    1  UNL1        0.0655
      9 C           8.9942   -0.2500    0.0000 C.ar    1  UNL1        0.0744
     10 C           4.6641   -1.7500    0.0000 C.ar    1  UNL1       -0.0106
     11 C           5.5301   -0.2500    0.0000 C.ar    1  UNL1        0.1358
     12 C           8.9942    0.7500    0.0000 C.ar    1  UNL1        0.0363
     13 C           8.1282   -0.7500    0.0000 C.ar    1  UNL1        0.1361
     14 C           6.3961   -1.7500    0.0000 C.ar    1  UNL1       -0.0498
     15 C           7.2622    0.7500    0.0000 C.ar    1  UNL1       -0.0497
     16 C           5.5301   -2.2500    0.0000 C.ar    1  UNL1       -0.0531
     17 C           8.1282    1.2500    0.0000 C.ar    1  UNL1       -0.0494
     18 C           3.7702   -0.2153    0.0000 C.ar    1  UNL1        0.1283
     19 C           3.7702   -2.2846    0.0000 C.ar    1  UNL1       -0.0508
     20 C           9.8882    1.2847    0.0000 C.2     1  UNL1        0.1898
     21 C           9.8882   -0.7846    0.0000 C.2     1  UNL1        0.1906
     22 C           2.8641   -1.7708    0.0000 C.ar    1  UNL1       -0.0464
     23 C          10.7942    0.7708    0.0000 C.2     1  UNL1        0.0004
     24 C           2.8641   -0.7292    0.0000 C.ar    1  UNL1       -0.0165
     25 C          10.7942   -0.2708    0.0000 C.2     1  UNL1       -0.0077
     26 C           2.0000   -2.2741    0.0000 C.3     1  UNL1       -0.0396
     27 C          11.6583    1.2742    0.0000 C.3     1  UNL1       -0.0359
     28 H           6.9331   -2.0600    0.0000 H       1  UNL1        0.0625
     29 H           6.7252    1.0600    0.0000 H       1  UNL1        0.0625
     30 H           5.5301   -2.8700    0.0000 H       1  UNL1        0.0624
     31 H           8.1282    1.8700    0.0000 H       1  UNL1        0.0625
     32 H           3.7773   -2.9046    0.0000 H       1  UNL1        0.0626
     33 H           2.3284   -0.4171    0.0000 H       1  UNL1        0.0657
     34 H          11.3300   -0.5828    0.0000 H       1  UNL1        0.0660
     35 H           1.6879   -1.7384    0.0000 H       1  UNL1        0.0278
     36 H           1.4643   -2.5862    0.0000 H       1  UNL1        0.0278
     37 H           2.3121   -2.8098    0.0000 H       1  UNL1        0.0278
     38 H          11.9704    0.7384    0.0000 H       1  UNL1        0.0279
     39 H          12.1941    1.5862    0.0000 H       1  UNL1        0.0279
     40 H          11.3463    1.8099    0.0000 H       1  UNL1        0.0279
     41 H           4.9932    1.0600    0.0000 H       1  UNL1        0.2922
     42 H           8.6651   -2.0600    0.0000 H       1  UNL1        0.2922
     43 H           3.2484    1.1008    0.0000 H       1  UNL1        0.2922
@<TRIPOS>BOND
     1     1    11    1
     2     1    41    1
     3     2    13    1
     4     2    42    1
     5     3    18    1
     6     3    43    1
     7     4    20    2
     8     5    21    2
     9     6     7    1
    10     6    11   ar
    11     6    14   ar
    12     7    13   ar
    13     7    15   ar
    14     8    10   ar
    15     8    11   ar
    16     8    18   ar
    17     9    12   ar
    18     9    13   ar
    19     9    21    1
    20    10    16   ar
    21    10    19   ar
    22    12    17   ar
    23    12    20    1
    24    14    16   ar
    25    14    28    1
    26    15    17   ar
    27    15    29    1
    28    16    30    1
    29    17    31    1
    30    18    24   ar
    31    19    22   ar
    32    19    32    1
    33    20    23    1
    34    21    25    1
    35    22    24   ar
    36    22    26    1
    37    23    25    2
    38    23    27    1
    39    24    33    1
    40    25    34    1
    41    26    35    1
    42    26    36    1
    43    26    37    1
    44    27    38    1
    45    27    39    1
    46    27    40    1
