@<TRIPOS>MOLECULE
IMPHY016466
 35 36 0 0 0
SMALL
GASTEIGER

@<TRIPOS>ATOM
      1 O           4.5986   -0.7990    0.0000 O.3     1  UNL1       -0.3566
      2 O           5.2320    2.2990    0.0000 O.2     1  UNL1       -0.2930
      3 C           3.7320   -0.2990    0.0000 C.3     1  UNL1        0.1224
      4 C           3.7320   -1.2990    0.0000 C.3     1  UNL1        0.1009
      5 C           2.8660    0.2010    0.0000 C.3     1  UNL1        0.0005
      6 C           2.8660   -1.7990    0.0000 C.3     1  UNL1       -0.0209
      7 C           2.0000   -0.2990    0.0000 C.3     1  UNL1       -0.0448
      8 C           2.0000   -1.2990    0.0000 C.3     1  UNL1       -0.0498
      9 C           3.7320   -2.2990    0.0000 C.3     1  UNL1       -0.0327
     10 C           4.2320    0.5670    0.0000 C.2     1  UNL1       -0.0460
     11 C           2.0000    0.7010    0.0000 C.3     1  UNL1       -0.0568
     12 C           2.8660    1.2010    0.0000 C.3     1  UNL1       -0.0568
     13 C           5.2320    0.5670    0.0000 C.2     1  UNL1       -0.0206
     14 C           5.7320    1.4330    0.0000 C.2     1  UNL1        0.1528
     15 C           6.7320    1.4330    0.0000 C.3     1  UNL1       -0.0020
     16 H           2.4675   -2.2740    0.0000 H       1  UNL1        0.0294
     17 H           3.2646   -2.2740    0.0000 H       1  UNL1        0.0294
     18 H           1.7880    0.2836    0.0000 H       1  UNL1        0.0271
     19 H           1.3894   -0.4067    0.0000 H       1  UNL1        0.0271
     20 H           1.3894   -1.1914    0.0000 H       1  UNL1        0.0266
     21 H           1.7880   -1.8816    0.0000 H       1  UNL1        0.0266
     22 H           3.1120   -2.2990    0.0000 H       1  UNL1        0.0258
     23 H           3.7320   -2.9190    0.0000 H       1  UNL1        0.0258
     24 H           4.3520   -2.2990    0.0000 H       1  UNL1        0.0258
     25 H           3.9220    1.1039    0.0000 H       1  UNL1        0.0603
     26 H           2.3100    1.2379    0.0000 H       1  UNL1        0.0236
     27 H           1.4631    1.0110    0.0000 H       1  UNL1        0.0236
     28 H           1.6900    0.1640    0.0000 H       1  UNL1        0.0236
     29 H           3.4860    1.2010    0.0000 H       1  UNL1        0.0236
     30 H           2.8660    1.8210    0.0000 H       1  UNL1        0.0236
     31 H           2.2460    1.2010    0.0000 H       1  UNL1        0.0236
     32 H           5.5420    0.0301    0.0000 H       1  UNL1        0.0650
     33 H           6.7320    0.8130    0.0000 H       1  UNL1        0.0309
     34 H           7.3520    1.4330    0.0000 H       1  UNL1        0.0309
     35 H           6.7320    2.0530    0.0000 H       1  UNL1        0.0309
@<TRIPOS>BOND
     1     1     3    1
     2     1     4    1
     3     2    14    2
     4     3     4    1
     5     3     5    1
     6     3    10    1
     7     4     6    1
     8     4     9    1
     9     5     7    1
    10     5    11    1
    11     5    12    1
    12     6     8    1
    13     6    16    1
    14     6    17    1
    15     7     8    1
    16     7    18    1
    17     7    19    1
    18     8    20    1
    19     8    21    1
    20     9    22    1
    21     9    23    1
    22     9    24    1
    23    10    13    2
    24    10    25    1
    25    11    26    1
    26    11    27    1
    27    11    28    1
    28    12    29    1
    29    12    30    1
    30    12    31    1
    31    13    14    1
    32    13    32    1
    33    14    15    1
    34    15    33    1
    35    15    34    1
    36    15    35    1
