@<TRIPOS>MOLECULE
IMPHY009833
 43 42 0 0 0
SMALL
GASTEIGER

@<TRIPOS>ATOM
      1 O           5.4641    0.7500    0.0000 O.3     1  UNL1       -0.4640
      2 O           4.5981    2.2500    0.0000 O.2     1  UNL1       -0.2508
      3 C           7.1962    0.7500    0.0000 C.3     1  UNL1        0.0173
      4 C           7.1962   -0.2500    0.0000 C.3     1  UNL1       -0.0249
      5 C           6.3301    1.2500    0.0000 C.3     1  UNL1        0.0992
      6 C           8.0622    1.2500    0.0000 C.2     1  UNL1       -0.0731
      7 C           2.8660    1.2500    0.0000 C.3     1  UNL1       -0.0367
      8 C           3.7320    0.7500    0.0000 C.3     1  UNL1        0.0473
      9 C           6.3301   -0.7500    0.0000 C.2     1  UNL1       -0.0846
     10 C           4.5981    1.2500    0.0000 C.2     1  UNL1        0.3073
     11 C           2.0000    0.7500    0.0000 C.3     1  UNL1       -0.0622
     12 C           2.8660    2.2500    0.0000 C.3     1  UNL1       -0.0622
     13 C           8.9282    0.7500    0.0000 C.3     1  UNL1       -0.0437
     14 C           6.3301   -1.7500    0.0000 C.2     1  UNL1       -0.0796
     15 C           8.0622    2.2500    0.0000 C.2     1  UNL1       -0.0993
     16 C           5.4641   -2.2500    0.0000 C.3     1  UNL1       -0.0440
     17 C           7.1962   -2.2500    0.0000 C.3     1  UNL1       -0.0440
     18 H           6.6592    0.4400    0.0000 H       1  UNL1        0.0381
     19 H           7.4082   -0.8326    0.0000 H       1  UNL1        0.0314
     20 H           7.8067   -0.1423    0.0000 H       1  UNL1        0.0314
     21 H           6.7287    1.7250    0.0000 H       1  UNL1        0.0703
     22 H           5.9316    1.7250    0.0000 H       1  UNL1        0.0703
     23 H           2.8660    0.6300    0.0000 H       1  UNL1        0.0301
     24 H           3.3335    0.2751    0.0000 H       1  UNL1        0.0380
     25 H           4.1306    0.2751    0.0000 H       1  UNL1        0.0380
     26 H           5.7932   -0.4400    0.0000 H       1  UNL1        0.0572
     27 H           1.6900    1.2869    0.0000 H       1  UNL1        0.0232
     28 H           1.4631    0.4400    0.0000 H       1  UNL1        0.0232
     29 H           2.3100    0.2131    0.0000 H       1  UNL1        0.0232
     30 H           3.4860    2.2500    0.0000 H       1  UNL1        0.0232
     31 H           2.8660    2.8700    0.0000 H       1  UNL1        0.0232
     32 H           2.2460    2.2500    0.0000 H       1  UNL1        0.0232
     33 H           8.6182    0.2131    0.0000 H       1  UNL1        0.0274
     34 H           9.4651    0.4400    0.0000 H       1  UNL1        0.0274
     35 H           9.2382    1.2869    0.0000 H       1  UNL1        0.0274
     36 H           8.5991    2.5600    0.0000 H       1  UNL1        0.0534
     37 H           7.5252    2.5600    0.0000 H       1  UNL1        0.0534
     38 H           5.1541   -1.7131    0.0000 H       1  UNL1        0.0274
     39 H           4.9272   -2.5600    0.0000 H       1  UNL1        0.0274
     40 H           5.7741   -2.7869    0.0000 H       1  UNL1        0.0274
     41 H           6.8862   -2.7869    0.0000 H       1  UNL1        0.0274
     42 H           7.7331   -2.5600    0.0000 H       1  UNL1        0.0274
     43 H           7.5062   -1.7131    0.0000 H       1  UNL1        0.0274
@<TRIPOS>BOND
     1     1     5    1
     2     1    10    1
     3     2    10    2
     4     3     4    1
     5     3     5    1
     6     3     6    1
     7     3    18    1
     8     4     9    1
     9     4    19    1
    10     4    20    1
    11     5    21    1
    12     5    22    1
    13     6    13    1
    14     6    15    2
    15     7     8    1
    16     7    11    1
    17     7    12    1
    18     7    23    1
    19     8    10    1
    20     8    24    1
    21     8    25    1
    22     9    14    2
    23     9    26    1
    24    11    27    1
    25    11    28    1
    26    11    29    1
    27    12    30    1
    28    12    31    1
    29    12    32    1
    30    13    33    1
    31    13    34    1
    32    13    35    1
    33    14    16    1
    34    14    17    1
    35    15    36    1
    36    15    37    1
    37    16    38    1
    38    16    39    1
    39    16    40    1
    40    17    41    1
    41    17    42    1
    42    17    43    1
