@<TRIPOS>MOLECULE
IMPHY009440
 41 43 0 0 0
SMALL
GASTEIGER

@<TRIPOS>ATOM
      1 O           3.7420    1.5282    0.0000 O.3     1  UNL1       -0.4948
      2 O           2.1077   -2.7531    0.0000 O.3     1  UNL1       -0.4771
      3 O           3.8134   -3.0538    0.0000 O.2     1  UNL1       -0.2451
      4 N           6.8463    2.4976    0.0000 N.3     1  UNL1       -0.2994
      5 C           7.3241    0.5491    0.0000 C.3     1  UNL1        0.0110
      6 C           7.5829    1.5150    0.0000 C.3     1  UNL1        0.0110
      7 C           5.2740    0.2426    0.0000 C.3     1  UNL1       -0.0096
      8 C           6.1031   -0.3166    0.0000 C.3     1  UNL1       -0.0303
      9 C           5.5497    1.2039    0.0000 C.3     1  UNL1       -0.0303
     10 C           8.7230    0.0403    0.0000 C.3     1  UNL1       -0.0359
     11 C           8.9818    1.0062    0.0000 C.3     1  UNL1       -0.0359
     12 C           4.3343   -0.0994    0.0000 C.ar    1  UNL1       -0.0018
     13 C           6.3463    3.3636    0.0000 C.3     1  UNL1       -0.0122
     14 C           3.5683    0.5434    0.0000 C.ar    1  UNL1        0.1236
     15 C           4.1607   -1.0842    0.0000 C.ar    1  UNL1       -0.0409
     16 C           3.2210   -1.4262    0.0000 C.ar    1  UNL1        0.0593
     17 C           2.6286    0.2014    0.0000 C.ar    1  UNL1       -0.0189
     18 C           2.4550   -0.7834    0.0000 C.ar    1  UNL1       -0.0443
     19 C           3.0473   -2.4110    0.0000 C.2     1  UNL1        0.3368
     20 C           2.9759    2.1710    0.0000 C.3     1  UNL1        0.0788
     21 H           7.7856    0.9631    0.0000 H       1  UNL1        0.0463
     22 H           7.9523    2.0130    0.0000 H       1  UNL1        0.0463
     23 H           4.8206    0.6654    0.0000 H       1  UNL1        0.0351
     24 H           5.6972   -0.7853    0.0000 H       1  UNL1        0.0286
     25 H           6.5197   -0.7757    0.0000 H       1  UNL1        0.0286
     26 H           5.5446    1.8238    0.0000 H       1  UNL1        0.0286
     27 H           4.9354    1.2877    0.0000 H       1  UNL1        0.0286
     28 H           8.5281   -0.5483    0.0000 H       1  UNL1        0.0281
     29 H           9.3170   -0.1375    0.0000 H       1  UNL1        0.0281
     30 H           9.5758    0.8284    0.0000 H       1  UNL1        0.0281
     31 H           9.1768    1.5947    0.0000 H       1  UNL1        0.0281
     32 H           6.8832    3.6736    0.0000 H       1  UNL1        0.0391
     33 H           6.0363    3.9006    0.0000 H       1  UNL1        0.0391
     34 H           5.8094    3.0537    0.0000 H       1  UNL1        0.0391
     35 H           4.6356   -1.4827    0.0000 H       1  UNL1        0.0630
     36 H           2.1537    0.5999    0.0000 H       1  UNL1        0.0654
     37 H           1.8724   -0.9955    0.0000 H       1  UNL1        0.0627
     38 H           3.3744    2.6459    0.0000 H       1  UNL1        0.0660
     39 H           2.5010    2.5695    0.0000 H       1  UNL1        0.0660
     40 H           2.5774    1.6960    0.0000 H       1  UNL1        0.0660
     41 H           2.0000   -3.3636    0.0000 H       1  UNL1        0.2954
@<TRIPOS>BOND
     1     1    14    1
     2     1    20    1
     3     2    19    1
     4     2    41    1
     5     3    19    2
     6     4     5    1
     7     4     6    1
     8     4    13    1
     9     5     8    1
    10     5    10    1
    11     5    21    1
    12     6     9    1
    13     6    11    1
    14     6    22    1
    15     7     8    1
    16     7     9    1
    17     7    12    1
    18     7    23    1
    19     8    24    1
    20     8    25    1
    21     9    26    1
    22     9    27    1
    23    10    11    1
    24    10    28    1
    25    10    29    1
    26    11    30    1
    27    11    31    1
    28    12    14   ar
    29    12    15   ar
    30    13    32    1
    31    13    33    1
    32    13    34    1
    33    14    17   ar
    34    15    16   ar
    35    15    35    1
    36    16    18   ar
    37    16    19    1
    38    17    18   ar
    39    17    36    1
    40    18    37    1
    41    20    38    1
    42    20    39    1
    43    20    40    1
