@<TRIPOS>MOLECULE
IMPHY011353
 129 135 0 0 0
SMALL
GASTEIGER

@<TRIPOS>ATOM
      1 O           6.0380    2.4961    0.0000 O.3     1  UNL1       -0.3754
      2 O           7.7331   -1.6941    0.0000 O.3     1  UNL1       -0.3448
      3 O          10.4084    6.0580    0.0000 O.3     1  UNL1       -0.3911
      4 O          10.1773   -1.0024    0.0000 O.3     1  UNL1       -0.3944
      5 O           9.4869    7.5853    0.0000 O.3     1  UNL1       -0.3944
      6 O           6.0010   -1.6941    0.0000 O.3     1  UNL1       -0.3431
      7 O           7.7331   -3.6941    0.0000 O.3     1  UNL1       -0.3841
      8 O           6.0010   -4.6941    0.0000 O.3     1  UNL1       -0.3401
      9 O           4.2690   -3.6941    0.0000 O.3     1  UNL1       -0.3866
     10 O           4.2690   -4.6941    0.0000 O.3     1  UNL1       -0.3405
     11 O           6.0010   -6.6941    0.0000 O.3     1  UNL1       -0.3841
     12 O           4.2690   -7.6941    0.0000 O.3     1  UNL1       -0.3864
     13 O           2.5369   -6.6941    0.0000 O.3     1  UNL1       -0.3865
     14 O           2.5369   -3.6941    0.0000 O.3     1  UNL1       -0.3924
     15 C           8.6342    3.0061    0.0000 C.3     1  UNL1       -0.0169
     16 C           7.7701    2.5027    0.0000 C.3     1  UNL1        0.0007
     17 C           7.7580    1.4612    0.0000 C.3     1  UNL1       -0.0225
     18 C           8.6303    4.0061    0.0000 C.3     1  UNL1       -0.0026
     19 C           8.6581    0.9369    0.0000 C.3     1  UNL1       -0.0254
     20 C           9.5461    2.5027    0.0000 C.3     1  UNL1       -0.0462
     21 C           7.7624    4.5027    0.0000 C.2     1  UNL1       -0.0607
     22 C           9.5581    1.4612    0.0000 C.3     1  UNL1       -0.0485
     23 C           8.6706   -0.1480    0.0000 C.3     1  UNL1        0.0206
     24 C           7.7423    5.5442    0.0000 C.3     1  UNL1       -0.0087
     25 C           6.9021    2.9994    0.0000 C.3     1  UNL1        0.0805
     26 C           8.6383    6.0754    0.0000 C.3     1  UNL1        0.0263
     27 C           9.5383    4.5164    0.0000 C.3     1  UNL1       -0.0166
     28 C           6.8081    0.9369    0.0000 C.3     1  UNL1       -0.0446
     29 C           9.5424    5.5580    0.0000 C.3     1  UNL1        0.0643
     30 C           9.6183    3.1835    0.0000 C.3     1  UNL1       -0.0584
     31 C           7.7331   -0.6941    0.0000 C.3     1  UNL1        0.0695
     32 C           6.8983    3.9994    0.0000 C.2     1  UNL1       -0.0553
     33 C           6.8939    1.9645    0.0000 C.3     1  UNL1       -0.0589
     34 C           6.7956   -0.1480    0.0000 C.3     1  UNL1       -0.0254
     35 C           9.6158    3.8362    0.0000 C.3     1  UNL1       -0.0552
     36 C           6.7884    6.0611    0.0000 C.3     1  UNL1       -0.0406
     37 C           8.6424    7.1604    0.0000 C.3     1  UNL1       -0.0419
     38 C           6.7674    7.1459    0.0000 C.3     1  UNL1       -0.0343
     39 C           7.7007    7.6992    0.0000 C.3     1  UNL1       -0.0472
     40 C           9.1773   -1.0102    0.0000 C.3     1  UNL1        0.0522
     41 C           9.6706   -0.1403    0.0000 C.3     1  UNL1       -0.0548
     42 C           9.4985    6.5854    0.0000 C.3     1  UNL1        0.0527
     43 C           6.2542    8.0041    0.0000 C.3     1  UNL1       -0.0598
     44 C           5.7676    7.1305    0.0000 C.3     1  UNL1       -0.0598
     45 C           6.8671   -2.1941    0.0000 C.3     1  UNL1        0.1881
     46 C           5.1701    2.9927    0.0000 C.3     1  UNL1        0.0372
     47 C           6.8671   -3.1941    0.0000 C.3     1  UNL1        0.1345
     48 C           6.0010   -3.6941    0.0000 C.3     1  UNL1        0.1205
     49 C           5.1350   -2.1941    0.0000 C.3     1  UNL1        0.0873
     50 C           5.1350   -3.1941    0.0000 C.3     1  UNL1        0.1098
     51 C           4.2690   -1.6941    0.0000 C.3     1  UNL1       -0.0361
     52 C           5.1350   -5.1941    0.0000 C.3     1  UNL1        0.1884
     53 C           5.1350   -6.1941    0.0000 C.3     1  UNL1        0.1341
     54 C           4.2690   -6.6941    0.0000 C.3     1  UNL1        0.1141
     55 C           3.4030   -5.1941    0.0000 C.3     1  UNL1        0.1130
     56 C           3.4030   -6.1941    0.0000 C.3     1  UNL1        0.1119
     57 C           2.5369   -4.6941    0.0000 C.3     1  UNL1        0.0730
     58 H           8.3058    2.1907    0.0000 H       1  UNL1        0.0340
     59 H           9.3974    0.5176    0.0000 H       1  UNL1        0.0313
     60 H          10.1581    2.4037    0.0000 H       1  UNL1        0.0271
     61 H           9.7484    3.0888    0.0000 H       1  UNL1        0.0271
     62 H           9.7739    0.8800    0.0000 H       1  UNL1        0.0268
     63 H          10.1677    1.5743    0.0000 H       1  UNL1        0.0268
     64 H           7.0162    5.1023    0.0000 H       1  UNL1        0.0353
     65 H           6.9045    2.3794    0.0000 H       1  UNL1        0.0643
     66 H           9.7451    3.9319    0.0000 H       1  UNL1        0.0299
     67 H          10.1496    4.6202    0.0000 H       1  UNL1        0.0299
     68 H           6.6058    1.5230    0.0000 H       1  UNL1        0.0272
     69 H           6.1961    0.8379    0.0000 H       1  UNL1        0.0272
     70 H          10.0787    5.2470    0.0000 H       1  UNL1        0.0600
     71 H           9.7283    2.5734    0.0000 H       1  UNL1        0.0235
     72 H          10.2284    3.2936    0.0000 H       1  UNL1        0.0235
     73 H           9.5083    3.7937    0.0000 H       1  UNL1        0.0235
     74 H           8.2706   -1.0031    0.0000 H       1  UNL1        0.0603
     75 H           6.3601    4.3073    0.0000 H       1  UNL1        0.0597
     76 H           7.2060    2.5003    0.0000 H       1  UNL1        0.0235
     77 H           6.3582    2.2766    0.0000 H       1  UNL1        0.0235
     78 H           6.5818    1.4288    0.0000 H       1  UNL1        0.0235
     79 H           6.1860   -0.0349    0.0000 H       1  UNL1        0.0290
     80 H           6.5798   -0.7293    0.0000 H       1  UNL1        0.0290
     81 H           9.5105    3.2252    0.0000 H       1  UNL1        0.0238
     82 H          10.2268    3.7309    0.0000 H       1  UNL1        0.0238
     83 H           9.7211    4.4472    0.0000 H       1  UNL1        0.0238
     84 H           6.1756    6.1554    0.0000 H       1  UNL1        0.0276
     85 H           6.5906    5.4735    0.0000 H       1  UNL1        0.0276
     86 H           9.2529    7.0519    0.0000 H       1  UNL1        0.0272
     87 H           8.8538    7.7433    0.0000 H       1  UNL1        0.0272
     88 H           8.0962    8.1767    0.0000 H       1  UNL1        0.0271
     89 H           7.2980    8.1706    0.0000 H       1  UNL1        0.0271
     90 H           8.5963   -1.2267    0.0000 H       1  UNL1        0.0563
     91 H           9.2896   -1.6199    0.0000 H       1  UNL1        0.0563
     92 H           9.6754   -0.7603    0.0000 H       1  UNL1        0.0237
     93 H          10.2906   -0.1355    0.0000 H       1  UNL1        0.0237
     94 H           9.6658    0.4797    0.0000 H       1  UNL1        0.0237
     95 H           9.7172    6.0052    0.0000 H       1  UNL1        0.0564
     96 H          10.1078    6.7001    0.0000 H       1  UNL1        0.0564
     97 H          10.9453    5.7480    0.0000 H       1  UNL1        0.2098
     98 H           5.7580    7.7504    0.0000 H       1  UNL1        0.0235
     99 H           5.1476    7.1209    0.0000 H       1  UNL1        0.0235
    100 H           5.7771    6.5106    0.0000 H       1  UNL1        0.0235
    101 H           6.7862    8.3224    0.0000 H       1  UNL1        0.0235
    102 H           5.9359    8.5362    0.0000 H       1  UNL1        0.0235
    103 H           5.7220    7.6859    0.0000 H       1  UNL1        0.0235
    104 H           7.4040   -2.5041    0.0000 H       1  UNL1        0.0937
    105 H           5.4780    3.5309    0.0000 H       1  UNL1        0.0524
    106 H           4.6320    3.3007    0.0000 H       1  UNL1        0.0524
    107 H           4.8621    2.4546    0.0000 H       1  UNL1        0.0524
    108 H          10.4914   -1.5370    0.0000 H       1  UNL1        0.2094
    109 H          10.0202    7.9015    0.0000 H       1  UNL1        0.2094
    110 H           6.8671   -3.8141    0.0000 H       1  UNL1        0.0671
    111 H           5.4641   -4.0041    0.0000 H       1  UNL1        0.0651
    112 H           5.1350   -1.5741    0.0000 H       1  UNL1        0.0621
    113 H           4.5981   -2.8841    0.0000 H       1  UNL1        0.0646
    114 H           7.7331   -4.3141    0.0000 H       1  UNL1        0.2101
    115 H           4.5790   -1.1572    0.0000 H       1  UNL1        0.0255
    116 H           3.7320   -1.3841    0.0000 H       1  UNL1        0.0255
    117 H           3.9590   -2.2311    0.0000 H       1  UNL1        0.0255
    118 H           3.7320   -3.3841    0.0000 H       1  UNL1        0.2100
    119 H           5.1350   -4.5741    0.0000 H       1  UNL1        0.0938
    120 H           5.1350   -6.8141    0.0000 H       1  UNL1        0.0671
    121 H           3.7320   -7.0041    0.0000 H       1  UNL1        0.0648
    122 H           3.4030   -4.5741    0.0000 H       1  UNL1        0.0647
    123 H           3.4030   -6.8141    0.0000 H       1  UNL1        0.0647
    124 H           6.0010   -7.3141    0.0000 H       1  UNL1        0.2101
    125 H           1.9264   -4.5865    0.0000 H       1  UNL1        0.0584
    126 H           2.3249   -5.2767    0.0000 H       1  UNL1        0.0584
    127 H           3.7320   -8.0041    0.0000 H       1  UNL1        0.2100
    128 H           2.0000   -6.3841    0.0000 H       1  UNL1        0.2100
    129 H           2.0000   -3.3841    0.0000 H       1  UNL1        0.2095
@<TRIPOS>BOND
     1     1    25    1
     2     1    46    1
     3    31     2    1
     4    45     2    1
     5    29     3    1
     6     3    97    1
     7     4    40    1
     8     4   108    1
     9     5    42    1
    10     5   109    1
    11     6    45    1
    12     6    49    1
    13    47     7    1
    14     7   114    1
    15    48     8    1
    16    52     8    1
    17    50     9    1
    18     9   118    1
    19    10    52    1
    20    10    55    1
    21    53    11    1
    22    11   124    1
    23    54    12    1
    24    12   127    1
    25    56    13    1
    26    13   128    1
    27    14    57    1
    28    14   129    1
    29    15    16    1
    30    15    18    1
    31    15    20    1
    32    15    30    1
    33    16    17    1
    34    16    25    1
    35    16    58    1
    36    17    19    1
    37    17    28    1
    38    17    33    1
    39    18    21    1
    40    18    27    1
    41    18    35    1
    42    19    22    1
    43    19    23    1
    44    19    59    1
    45    20    22    1
    46    20    60    1
    47    20    61    1
    48    21    24    1
    49    21    32    2
    50    22    62    1
    51    22    63    1
    52    23    31    1
    53    23    40    1
    54    23    41    1
    55    24    26    1
    56    24    36    1
    57    24    64    1
    58    25    32    1
    59    25    65    1
    60    26    29    1
    61    26    37    1
    62    26    42    1
    63    27    29    1
    64    27    66    1
    65    27    67    1
    66    28    34    1
    67    28    68    1
    68    28    69    1
    69    29    70    1
    70    30    71    1
    71    30    72    1
    72    30    73    1
    73    31    34    1
    74    31    74    1
    75    32    75    1
    76    33    76    1
    77    33    77    1
    78    33    78    1
    79    34    79    1
    80    34    80    1
    81    35    81    1
    82    35    82    1
    83    35    83    1
    84    36    38    1
    85    36    84    1
    86    36    85    1
    87    37    39    1
    88    37    86    1
    89    37    87    1
    90    38    39    1
    91    38    43    1
    92    38    44    1
    93    39    88    1
    94    39    89    1
    95    40    90    1
    96    40    91    1
    97    41    92    1
    98    41    93    1
    99    41    94    1
   100    42    95    1
   101    42    96    1
   102    43   101    1
   103    43   102    1
   104    43   103    1
   105    44    98    1
   106    44    99    1
   107    44   100    1
   108    45    47    1
   109    45   104    1
   110    46   105    1
   111    46   106    1
   112    46   107    1
   113    47    48    1
   114    47   110    1
   115    48    50    1
   116    48   111    1
   117    49    50    1
   118    49    51    1
   119    49   112    1
   120    50   113    1
   121    51   115    1
   122    51   116    1
   123    51   117    1
   124    52    53    1
   125    52   119    1
   126    53    54    1
   127    53   120    1
   128    54    56    1
   129    54   121    1
   130    55    56    1
   131    55    57    1
   132    55   122    1
   133    56   123    1
   134    57   125    1
   135    57   126    1
