@<TRIPOS>MOLECULE
IMPHY017825
 37 38 0 0 0
SMALL
GASTEIGER

@<TRIPOS>ATOM
      1 O           3.8398   -2.0898    0.0000 O.3     1  UNL1       -0.3912
      2 C           4.3911   -0.4886    0.0000 C.3     1  UNL1        0.0067
      3 C           5.3308    0.8208    0.0000 C.3     1  UNL1       -0.0169
      4 C           4.3861    0.5113    0.0000 C.2     1  UNL1       -0.0605
      5 C           5.3388   -0.7887    0.0000 C.3     1  UNL1       -0.0436
      6 C           5.9184    0.0190    0.0000 C.3     1  UNL1       -0.0456
      7 C           3.6124   -1.1160    0.0000 C.3     1  UNL1        0.0620
      8 C           5.6367    1.7728    0.0000 C.3     1  UNL1       -0.0402
      9 C           2.6364   -0.8984    0.0000 C.3     1  UNL1       -0.0223
     10 C           3.6012    1.1309    0.0000 C.2     1  UNL1       -0.0593
     11 C           2.1980    0.0004    0.0000 C.3     1  UNL1       -0.0259
     12 C           2.6274    0.9035    0.0000 C.2     1  UNL1       -0.0544
     13 C           6.6142    1.9839    0.0000 C.3     1  UNL1       -0.0621
     14 C           4.9652    2.5138    0.0000 C.3     1  UNL1       -0.0621
     15 C           2.0000    1.6822    0.0000 C.2     1  UNL1       -0.0955
     16 H           4.8904   -0.1211    0.0000 H       1  UNL1        0.0371
     17 H           5.9428    0.9200    0.0000 H       1  UNL1        0.0348
     18 H           5.0906   -1.3568    0.0000 H       1  UNL1        0.0272
     19 H           5.8778   -1.0952    0.0000 H       1  UNL1        0.0272
     20 H           6.3814   -0.3935    0.0000 H       1  UNL1        0.0271
     21 H           6.3772    0.4360    0.0000 H       1  UNL1        0.0271
     22 H           4.1986   -1.3179    0.0000 H       1  UNL1        0.0599
     23 H           6.0531    1.3134    0.0000 H       1  UNL1        0.0301
     24 H           2.0326   -1.0394    0.0000 H       1  UNL1        0.0293
     25 H           2.6395   -1.5184    0.0000 H       1  UNL1        0.0293
     26 H           3.7361    1.7361    0.0000 H       1  UNL1        0.0620
     27 H           1.7113    0.3846    0.0000 H       1  UNL1        0.0314
     28 H           1.7152   -0.3886    0.0000 H       1  UNL1        0.0314
     29 H           6.7451    1.3779    0.0000 H       1  UNL1        0.0233
     30 H           7.2202    2.1148    0.0000 H       1  UNL1        0.0233
     31 H           6.4833    2.5900    0.0000 H       1  UNL1        0.0233
     32 H           5.4246    2.9302    0.0000 H       1  UNL1        0.0233
     33 H           4.5488    2.9732    0.0000 H       1  UNL1        0.0233
     34 H           4.5058    2.0974    0.0000 H       1  UNL1        0.0233
     35 H           3.3874   -2.5138    0.0000 H       1  UNL1        0.2098
     36 H           2.2236    2.2605    0.0000 H       1  UNL1        0.0537
     37 H           1.3874    1.5868    0.0000 H       1  UNL1        0.0537
@<TRIPOS>BOND
     1     7     1    1
     2     1    35    1
     3     2     4    1
     4     2     5    1
     5     2     7    1
     6     2    16    1
     7     3     4    1
     8     3     6    1
     9     3     8    1
    10     3    17    1
    11     4    10    2
    12     5     6    1
    13     5    18    1
    14     5    19    1
    15     6    20    1
    16     6    21    1
    17     7     9    1
    18     7    22    1
    19     8    13    1
    20     8    14    1
    21     8    23    1
    22     9    11    1
    23     9    24    1
    24     9    25    1
    25    10    12    1
    26    10    26    1
    27    11    12    1
    28    11    27    1
    29    11    28    1
    30    12    15    2
    31    13    29    1
    32    13    30    1
    33    13    31    1
    34    14    32    1
    35    14    33    1
    36    14    34    1
    37    15    36    1
    38    15    37    1
