@<TRIPOS>MOLECULE
IMPHY013517
 60 65 0 0 0
SMALL
GASTEIGER

@<TRIPOS>ATOM
      1 O           6.0682    0.2704    0.0000 O.3     1  UNL1       -0.4828
      2 O          10.3984    1.7704    0.0000 O.3     1  UNL1       -0.4486
      3 O           6.0682   -2.7296    0.0000 O.2     1  UNL1       -0.2917
      4 O           4.3198   -2.7642    0.0000 O.3     1  UNL1       -0.5058
      5 O          13.8904   -0.2643    0.0000 O.2     1  UNL1       -0.4544
      6 O           2.5381    0.2945    0.0000 O.3     1  UNL1       -0.5065
      7 O          12.1304    2.7704    0.0000 O.3     1  UNL1       -0.5026
      8 O          10.3984   -0.2296    0.0000 O.3     1  UNL1       -0.5031
      9 O          13.8788    2.8050    0.0000 O.2     1  UNL1       -0.2869
     10 O          18.2528   -1.7638    0.0000 O.3     1  UNL1       -0.5068
     11 C           6.9343   -0.2296    0.0000 C.3     1  UNL1        0.1322
     12 C           6.9343   -1.2296    0.0000 C.3     1  UNL1        0.0520
     13 C           7.8003    0.2704    0.0000 C.ar    1  UNL1       -0.0067
     14 C           5.2022   -1.2296    0.0000 C.ar    1  UNL1        0.1007
     15 C           6.0682   -1.7296    0.0000 C.2     1  UNL1        0.1740
     16 C           5.2022   -0.2296    0.0000 C.ar    1  UNL1        0.1389
     17 C           7.8003    1.2704    0.0000 C.ar    1  UNL1       -0.0516
     18 C           8.6663   -0.2296    0.0000 C.ar    1  UNL1       -0.0516
     19 C           4.3083   -1.7643    0.0000 C.ar    1  UNL1        0.1343
     20 C           4.3083    0.3051    0.0000 C.ar    1  UNL1        0.0225
     21 C           9.5323    1.2704    0.0000 C.ar    1  UNL1        0.1288
     22 C           8.6663    1.7704    0.0000 C.ar    1  UNL1       -0.0190
     23 C           9.5323    0.2704    0.0000 C.ar    1  UNL1       -0.0190
     24 C           3.4022   -1.2504    0.0000 C.ar    1  UNL1        0.0222
     25 C           3.4022   -0.2088    0.0000 C.ar    1  UNL1        0.1238
     26 C          12.9965    1.2704    0.0000 C.ar    1  UNL1        0.1092
     27 C          11.2644    1.2704    0.0000 C.ar    1  UNL1        0.2116
     28 C          12.9965    0.2704    0.0000 C.ar    1  UNL1        0.1465
     29 C          12.1304    1.7704    0.0000 C.ar    1  UNL1        0.1774
     30 C          11.2644    0.2704    0.0000 C.ar    1  UNL1        0.1664
     31 C          12.1304   -0.2296    0.0000 C.ar    1  UNL1        0.0268
     32 C          13.8904    1.8050    0.0000 C.ar    1  UNL1        0.1967
     33 C          14.7965    0.2496    0.0000 C.ar    1  UNL1        0.1392
     34 C          14.7965    1.2912    0.0000 C.ar    1  UNL1        0.0288
     35 C          15.6606   -0.2538    0.0000 C.ar    1  UNL1        0.0176
     36 C          16.5285    0.2429    0.0000 C.ar    1  UNL1       -0.0476
     37 C          15.6567   -1.2538    0.0000 C.ar    1  UNL1       -0.0476
     38 C          17.3926   -0.2604    0.0000 C.ar    1  UNL1       -0.0195
     39 C          16.5208   -1.7571    0.0000 C.ar    1  UNL1       -0.0195
     40 C          17.3887   -1.2604    0.0000 C.ar    1  UNL1        0.1169
     41 H           6.9343    0.3904    0.0000 H       1  UNL1        0.0789
     42 H           7.1463   -1.8122    0.0000 H       1  UNL1        0.0385
     43 H           7.5449   -1.1220    0.0000 H       1  UNL1        0.0385
     44 H           7.2634    1.5804    0.0000 H       1  UNL1        0.0623
     45 H           8.6663   -0.8496    0.0000 H       1  UNL1        0.0623
     46 H           4.3154    0.9250    0.0000 H       1  UNL1        0.0691
     47 H           8.6663    2.3904    0.0000 H       1  UNL1        0.0654
     48 H          10.0693   -0.0396    0.0000 H       1  UNL1        0.0654
     49 H           2.8665   -1.5625    0.0000 H       1  UNL1        0.0691
     50 H          12.1304   -0.8496    0.0000 H       1  UNL1        0.0692
     51 H          15.3322    1.6033    0.0000 H       1  UNL1        0.0693
     52 H           3.7865   -3.0804    0.0000 H       1  UNL1        0.2922
     53 H           2.0000   -0.0134    0.0000 H       1  UNL1        0.2921
     54 H          16.5309    0.8629    0.0000 H       1  UNL1        0.0626
     55 H          15.1186   -1.5617    0.0000 H       1  UNL1        0.0626
     56 H          11.5935    3.0804    0.0000 H       1  UNL1        0.2923
     57 H          10.3984   -0.8496    0.0000 H       1  UNL1        0.2923
     58 H          17.9307    0.0475    0.0000 H       1  UNL1        0.0654
     59 H          16.5184   -2.3771    0.0000 H       1  UNL1        0.0654
     60 H          18.7910   -1.4558    0.0000 H       1  UNL1        0.2921
@<TRIPOS>BOND
     1     1    11    1
     2     1    16    1
     3     2    21    1
     4     2    27    1
     5     3    15    2
     6     4    19    1
     7     4    52    1
     8     5    28   ar
     9     5    33   ar
    10     6    25    1
    11     6    53    1
    12     7    29    1
    13     7    56    1
    14     8    30    1
    15     8    57    1
    16     9    32    2
    17    10    40    1
    18    10    60    1
    19    11    12    1
    20    11    13    1
    21    11    41    1
    22    12    15    1
    23    12    42    1
    24    12    43    1
    25    13    17   ar
    26    13    18   ar
    27    14    15    1
    28    14    16   ar
    29    14    19   ar
    30    16    20   ar
    31    17    22   ar
    32    17    44    1
    33    18    23   ar
    34    18    45    1
    35    19    24   ar
    36    20    25   ar
    37    20    46    1
    38    21    22   ar
    39    21    23   ar
    40    22    47    1
    41    23    48    1
    42    24    25   ar
    43    24    49    1
    44    26    28   ar
    45    26    29   ar
    46    26    32   ar
    47    27    29   ar
    48    27    30   ar
    49    28    31   ar
    50    30    31   ar
    51    31    50    1
    52    32    34   ar
    53    33    34   ar
    54    33    35    1
    55    34    51    1
    56    35    36   ar
    57    35    37   ar
    58    36    38   ar
    59    36    54    1
    60    37    39   ar
    61    37    55    1
    62    38    40   ar
    63    38    58    1
    64    39    40   ar
    65    39    59    1
