@<TRIPOS>MOLECULE
IMPHY003194
 88 94 0 0 0
SMALL
GASTEIGER

@<TRIPOS>ATOM
      1 O           4.8376   -0.9129    0.0000 O.3     1  UNL1       -0.3731
      2 O           6.3552   -2.0818    0.0000 O.3     1  UNL1       -0.3790
      3 O           8.1779    1.6800    0.0000 O.3     1  UNL1       -0.3791
      4 O           4.4614    1.4285    0.0000 O.3     1  UNL1       -0.4545
      5 O           6.0527    2.9919    0.0000 O.3     1  UNL1       -0.3822
      6 O           4.0486   -0.4717    0.0000 O.3     1  UNL1       -0.3862
      7 O           4.0602    2.1380    0.0000 O.3     1  UNL1       -0.3741
      8 O           9.9287   -0.5901    0.0000 O.3     1  UNL1       -0.3910
      9 O           9.0439   -2.5551    0.0000 O.3     1  UNL1       -0.3823
     10 O           3.2337    0.2068    0.0000 O.2     1  UNL1       -0.2449
     11 N           9.3732   -0.1490    0.0000 N.3     1  UNL1       -0.3006
     12 C           7.4265    0.2462    0.0000 C.3     1  UNL1        0.0222
     13 C           7.4265   -0.6213    0.0000 C.3     1  UNL1        0.0067
     14 C           6.7482    0.7872    0.0000 C.3     1  UNL1       -0.0194
     15 C           8.4285    0.1402    0.0000 C.3     1  UNL1        0.0267
     16 C           5.9024   -0.9692    0.0000 C.3     1  UNL1        0.0337
     17 C           5.9024    0.5941    0.0000 C.3     1  UNL1        0.0345
     18 C           5.5260   -0.1876    0.0000 C.3     1  UNL1        0.1105
     19 C           6.7482   -1.1623    0.0000 C.3     1  UNL1        0.0695
     20 C           8.1779   -1.0551    0.0000 C.3     1  UNL1        0.0385
     21 C           8.1779    0.6800    0.0000 C.3     1  UNL1        0.0683
     22 C           6.8260    1.6512    0.0000 C.3     1  UNL1       -0.0140
     23 C           6.0282    1.9922    0.0000 C.3     1  UNL1        0.1318
     24 C           5.4574    1.3389    0.0000 C.3     1  UNL1        0.1402
     25 C           4.8811    0.0824    0.0000 C.3     1  UNL1        0.1137
     26 C           9.3732   -0.9009    0.0000 C.3     1  UNL1        0.0094
     27 C           8.9292   -0.6213    0.0000 C.3     1  UNL1        0.0668
     28 C           4.8811    1.5669    0.0000 C.3     1  UNL1        0.1189
     29 C           8.9292    0.2462    0.0000 C.3     1  UNL1        0.0008
     30 C           8.1779   -2.0551    0.0000 C.3     1  UNL1        0.0568
     31 C          10.1772    0.4457    0.0000 C.3     1  UNL1       -0.0124
     32 C           4.6042   -1.8853    0.0000 C.3     1  UNL1        0.0373
     33 C           6.9550   -2.8819    0.0000 C.3     1  UNL1        0.0368
     34 C           9.0439    2.1800    0.0000 C.3     1  UNL1        0.0368
     35 C           3.4949    1.1721    0.0000 C.2     1  UNL1        0.3395
     36 C           4.1444    3.1344    0.0000 C.3     1  UNL1        0.0370
     37 C           9.0439   -3.5551    0.0000 C.3     1  UNL1        0.0365
     38 C           2.7895    1.8810    0.0000 C.ar    1  UNL1        0.0590
     39 C           1.8230    1.6246    0.0000 C.ar    1  UNL1       -0.0478
     40 C           3.0508    2.8462    0.0000 C.ar    1  UNL1       -0.0478
     41 C           1.1176    2.3334    0.0000 C.ar    1  UNL1       -0.0610
     42 C           2.3454    3.5551    0.0000 C.ar    1  UNL1       -0.0610
     43 C           1.3789    3.2987    0.0000 C.ar    1  UNL1       -0.0617
     44 H           7.4901   -1.4690    0.0000 H       1  UNL1        0.0340
     45 H           7.5298    1.1212    0.0000 H       1  UNL1        0.0313
     46 H           8.5524    0.7477    0.0000 H       1  UNL1        0.0473
     47 H           5.3724   -1.6338    0.0000 H       1  UNL1        0.0370
     48 H           5.0533    0.5560    0.0000 H       1  UNL1        0.0369
     49 H           6.9486   -1.7490    0.0000 H       1  UNL1        0.0603
     50 H           7.6409    0.9900    0.0000 H       1  UNL1        0.0603
     51 H           7.0088    2.2437    0.0000 H       1  UNL1        0.0298
     52 H           7.4343    1.5314    0.0000 H       1  UNL1        0.0298
     53 H           5.2266    1.9143    0.0000 H       1  UNL1        0.0768
     54 H           4.3346    0.3751    0.0000 H       1  UNL1        0.0649
     55 H           9.9926   -0.8744    0.0000 H       1  UNL1        0.0434
     56 H           9.4262   -1.5186    0.0000 H       1  UNL1        0.0434
     57 H           9.0990   -1.2176    0.0000 H       1  UNL1        0.0601
     58 H           4.9592    2.1819    0.0000 H       1  UNL1        0.0653
     59 H           9.1413    0.8288    0.0000 H       1  UNL1        0.0315
     60 H           9.5398    0.1386    0.0000 H       1  UNL1        0.0315
     61 H           7.9658   -2.6377    0.0000 H       1  UNL1        0.0566
     62 H           7.5673   -1.9475    0.0000 H       1  UNL1        0.0566
     63 H           9.8085    0.9441    0.0000 H       1  UNL1        0.0391
     64 H          10.6756    0.8144    0.0000 H       1  UNL1        0.0391
     65 H          10.5459   -0.0528    0.0000 H       1  UNL1        0.0391
     66 H           5.5235    3.3150    0.0000 H       1  UNL1        0.2104
     67 H           4.0880   -1.0904    0.0000 H       1  UNL1        0.2100
     68 H          10.2553   -1.1171    0.0000 H       1  UNL1        0.2098
     69 H           5.2070   -2.0301    0.0000 H       1  UNL1        0.0524
     70 H           4.4594   -2.4882    0.0000 H       1  UNL1        0.0524
     71 H           4.0013   -1.7405    0.0000 H       1  UNL1        0.0524
     72 H           7.4511   -2.5100    0.0000 H       1  UNL1        0.0524
     73 H           7.3269   -3.3780    0.0000 H       1  UNL1        0.0524
     74 H           6.4590   -3.2538    0.0000 H       1  UNL1        0.0524
     75 H           8.7339    2.7170    0.0000 H       1  UNL1        0.0524
     76 H           9.5808    2.4900    0.0000 H       1  UNL1        0.0524
     77 H           9.3539    1.6431    0.0000 H       1  UNL1        0.0524
     78 H           3.5266    3.1866    0.0000 H       1  UNL1        0.0524
     79 H           4.1966    3.7522    0.0000 H       1  UNL1        0.0524
     80 H           4.7622    3.0823    0.0000 H       1  UNL1        0.0524
     81 H           9.6639   -3.5551    0.0000 H       1  UNL1        0.0523
     82 H           9.0439   -4.1751    0.0000 H       1  UNL1        0.0523
     83 H           8.4239   -3.5551    0.0000 H       1  UNL1        0.0523
     84 H           1.6610    1.0261    0.0000 H       1  UNL1        0.0626
     85 H           3.6500    3.0052    0.0000 H       1  UNL1        0.0626
     86 H           0.5184    2.1745    0.0000 H       1  UNL1        0.0618
     87 H           2.5074    4.1536    0.0000 H       1  UNL1        0.0618
     88 H           0.9415    3.7382    0.0000 H       1  UNL1        0.0618
@<TRIPOS>BOND
     1    18     1    1
     2     1    32    1
     3    19     2    1
     4     2    33    1
     5    21     3    1
     6     3    34    1
     7    24     4    1
     8     4    35    1
     9    23     5    1
    10     5    66    1
    11    25     6    1
    12     6    67    1
    13    28     7    1
    14     7    36    1
    15    27     8    1
    16     8    68    1
    17     9    30    1
    18     9    37    1
    19    10    35    2
    20    11    15    1
    21    11    26    1
    22    11    31    1
    23    12    13    1
    24    12    14    1
    25    12    15    1
    26    12    21    1
    27    13    19    1
    28    13    20    1
    29    13    44    1
    30    14    17    1
    31    14    22    1
    32    14    45    1
    33    15    16    1
    34    15    46    1
    35    16    18    1
    36    16    19    1
    37    16    47    1
    38    17    18    1
    39    17    24    1
    40    17    48    1
    41    18    25    1
    42    19    49    1
    43    20    26    1
    44    20    27    1
    45    20    30    1
    46    21    29    1
    47    21    50    1
    48    22    23    1
    49    22    51    1
    50    22    52    1
    51    23    24    1
    52    23    28    1
    53    24    53    1
    54    25    28    1
    55    25    54    1
    56    26    55    1
    57    26    56    1
    58    27    29    1
    59    27    57    1
    60    28    58    1
    61    29    59    1
    62    29    60    1
    63    30    61    1
    64    30    62    1
    65    31    63    1
    66    31    64    1
    67    31    65    1
    68    32    69    1
    69    32    70    1
    70    32    71    1
    71    33    72    1
    72    33    73    1
    73    33    74    1
    74    34    75    1
    75    34    76    1
    76    34    77    1
    77    35    38    1
    78    36    78    1
    79    36    79    1
    80    36    80    1
    81    37    81    1
    82    37    82    1
    83    37    83    1
    84    38    39   ar
    85    38    40   ar
    86    39    41   ar
    87    39    84    1
    88    40    42   ar
    89    40    85    1
    90    41    43   ar
    91    41    86    1
    92    42    43   ar
    93    42    87    1
    94    43    88    1
