@<TRIPOS>MOLECULE
IMPHY000633
 35 39 0 0 0
SMALL
GASTEIGER

@<TRIPOS>ATOM
      1 O           2.5357   -3.0349    0.0000 O.3     1  UNL1       -0.2232
      2 O          11.5367    0.0701    0.0000 O.3     1  UNL1       -0.2231
      3 O          11.2187    3.0770    0.0000 O.3     1  UNL1       -0.4444
      4 O           9.7088    3.9256    0.0000 O.2     1  UNL1       -0.2501
      5 C           7.0628   -1.4826    0.0000 C.3     1  UNL1        0.0035
      6 C           6.1968   -0.9826    0.0000 C.3     1  UNL1        0.0046
      7 C           5.2868   -1.4895    0.0000 C.3     1  UNL1        0.0005
      8 C           7.9288   -0.9826    0.0000 C.3     1  UNL1        0.0149
      9 C           5.2787   -2.5311    0.0000 C.3     1  UNL1        0.0024
     10 C           7.0789   -2.5241    0.0000 C.3     1  UNL1        0.0003
     11 C           7.9288    0.0174    0.0000 C.2     1  UNL1       -0.0493
     12 C           6.1808   -3.0519    0.0000 C.3     1  UNL1        0.0001
     13 C           8.8228    0.5520    0.0000 C.3     1  UNL1        0.0208
     14 C           4.3433   -3.0808    0.0000 C.3     1  UNL1        0.0282
     15 C           9.7288    0.0382    0.0000 C.3     1  UNL1        0.0316
     16 C           8.8228   -1.5173    0.0000 C.3     1  UNL1        0.0038
     17 C           6.1968    0.0174    0.0000 C.3     1  UNL1        0.0254
     18 C           4.3599   -0.9254    0.0000 C.3     1  UNL1        0.0026
     19 C           9.7288   -1.0034    0.0000 C.3     1  UNL1        0.0031
     20 C           7.7056   -2.2487    0.0000 C.3     1  UNL1        0.0003
     21 C           7.0628    0.5174    0.0000 C.2     1  UNL1       -0.0346
     22 C           3.4037   -2.5383    0.0000 C.3     1  UNL1        0.1519
     23 C           5.2945   -0.4895    0.0000 C.3     1  UNL1        0.0000
     24 C           8.2709   -1.9223    0.0000 C.3     1  UNL1        0.0040
     25 C           3.4120   -1.4533    0.0000 C.3     1  UNL1        0.0329
     26 C           8.7977    1.6368    0.0000 C.3     1  UNL1        0.0147
     27 C          10.6726    0.5734    0.0000 C.3     1  UNL1        0.1527
     28 C           9.7288    2.1937    0.0000 C.3     1  UNL1        0.0923
     29 C          10.6726    1.6584    0.0000 C.3     1  UNL1        0.0434
     30 C           3.8467   -3.9487    0.0000 C.3     1  UNL1        0.0025
     31 C           4.8467   -3.9449    0.0000 C.3     1  UNL1        0.0025
     32 C          10.5987   -0.4551    0.0000 C.3     1  UNL1        0.0028
     33 C           9.2188    3.0539    0.0000 C.3     1  UNL1        0.0112
     34 C          10.2188    3.0654    0.0000 C.2     1  UNL1        0.3161
     35 C          11.7087    3.9487    0.0000 C.3     1  UNL1        0.2556
@<TRIPOS>BOND
     1     2    27    1
     2     3    34    1
     3     3    35    1
     4     4    34    2
     5     5     6    1
     6     5     8    1
     7     5    10    1
     8     5    20    1
     9     6     7    1
    10     6    17    1
    11     7     9    1
    12     7    18    1
    13     7    23    1
    14     8    11    1
    15     8    16    1
    16     8    24    1
    17     9    12    1
    18     9    14    1
    19    10    12    1
    20    11    21    2
    21    13    11    1
    22    13    15    1
    23    13    26    1
    24    14    22    1
    25    14    30    1
    26    14    31    1
    27    15    19    1
    28    15    27    1
    29    15    32    1
    30    16    19    1
    31    17    21    1
    32    18    25    1
    33    22     1    1
    34    22    25    1
    35    26    28    1
    36    27    29    1
    37    28    29    1
    38    28    33    1
    39    28    34    1
