@<TRIPOS>MOLECULE
IMPHY004070
 44 46 0 0 0
SMALL
GASTEIGER

@<TRIPOS>ATOM
      1 O           6.3580   -1.0176    0.0000 O.2     1  UNL1       -0.4507
      2 O           4.5981    2.0171    0.0000 O.3     1  UNL1       -0.4905
      3 O           4.5981   -1.9829    0.0000 O.3     1  UNL1       -0.4884
      4 O           2.8660    1.0171    0.0000 O.3     1  UNL1       -0.4884
      5 O           2.8660   -0.9829    0.0000 O.3     1  UNL1       -0.4883
      6 O           6.3465    2.0517    0.0000 O.2     1  UNL1       -0.2869
      7 O          10.7205   -2.5171    0.0000 O.3     1  UNL1       -0.5068
      8 C           5.4641    0.5171    0.0000 C.ar    1  UNL1        0.1130
      9 C           5.4641   -0.4829    0.0000 C.ar    1  UNL1        0.1881
     10 C           4.5981    1.0171    0.0000 C.ar    1  UNL1        0.1798
     11 C           4.5981   -0.9829    0.0000 C.ar    1  UNL1        0.2088
     12 C           3.7320    0.5171    0.0000 C.ar    1  UNL1        0.2082
     13 C           3.7320   -0.4829    0.0000 C.ar    1  UNL1        0.2110
     14 C           7.2641   -0.5037    0.0000 C.ar    1  UNL1        0.1394
     15 C           6.3580    1.0517    0.0000 C.ar    1  UNL1        0.1969
     16 C           7.2641    0.5379    0.0000 C.ar    1  UNL1        0.0288
     17 C           8.1282   -1.0071    0.0000 C.ar    1  UNL1        0.0176
     18 C           8.1244   -2.0071    0.0000 C.ar    1  UNL1       -0.0476
     19 C           8.9962   -0.5104    0.0000 C.ar    1  UNL1       -0.0476
     20 C           8.9884   -2.5104    0.0000 C.ar    1  UNL1       -0.0195
     21 C           9.8602   -1.0138    0.0000 C.ar    1  UNL1       -0.0195
     22 C           9.8564   -2.0137    0.0000 C.ar    1  UNL1        0.1169
     23 C           3.7320    2.5171    0.0000 C.3     1  UNL1        0.0790
     24 C           3.7320   -2.4829    0.0000 C.3     1  UNL1        0.0791
     25 C           2.0000    0.5171    0.0000 C.3     1  UNL1        0.0791
     26 C           2.0000   -0.4829    0.0000 C.3     1  UNL1        0.0791
     27 H           7.7998    0.8500    0.0000 H       1  UNL1        0.0693
     28 H           7.5862   -2.3150    0.0000 H       1  UNL1        0.0626
     29 H           8.9985    0.1096    0.0000 H       1  UNL1        0.0626
     30 H           8.9860   -3.1304    0.0000 H       1  UNL1        0.0654
     31 H          10.3984   -0.7058    0.0000 H       1  UNL1        0.0654
     32 H           4.0420    3.0540    0.0000 H       1  UNL1        0.0660
     33 H           3.1951    2.8271    0.0000 H       1  UNL1        0.0660
     34 H           3.4220    1.9801    0.0000 H       1  UNL1        0.0660
     35 H           3.4220   -1.9460    0.0000 H       1  UNL1        0.0660
     36 H           3.1951   -2.7929    0.0000 H       1  UNL1        0.0660
     37 H           4.0420   -3.0199    0.0000 H       1  UNL1        0.0660
     38 H           1.6900    1.0540    0.0000 H       1  UNL1        0.0660
     39 H           1.4631    0.2071    0.0000 H       1  UNL1        0.0660
     40 H           2.3100   -0.0199    0.0000 H       1  UNL1        0.0660
     41 H           2.3100    0.0540    0.0000 H       1  UNL1        0.0660
     42 H           1.4631   -0.1729    0.0000 H       1  UNL1        0.0660
     43 H           1.6900   -1.0199    0.0000 H       1  UNL1        0.0660
     44 H          11.2586   -2.2092    0.0000 H       1  UNL1        0.2921
@<TRIPOS>BOND
     1     1     9   ar
     2     1    14   ar
     3     2    10    1
     4     2    23    1
     5     3    11    1
     6     3    24    1
     7     4    12    1
     8     4    25    1
     9     5    13    1
    10     5    26    1
    11     6    15    2
    12     7    22    1
    13     7    44    1
    14     8     9   ar
    15     8    10   ar
    16     8    15   ar
    17     9    11   ar
    18    10    12   ar
    19    11    13   ar
    20    12    13   ar
    21    14    16   ar
    22    14    17    1
    23    15    16   ar
    24    16    27    1
    25    17    18   ar
    26    17    19   ar
    27    18    20   ar
    28    18    28    1
    29    19    21   ar
    30    19    29    1
    31    20    22   ar
    32    20    30    1
    33    21    22   ar
    34    21    31    1
    35    23    32    1
    36    23    33    1
    37    23    34    1
    38    24    35    1
    39    24    36    1
    40    24    37    1
    41    25    38    1
    42    25    39    1
    43    25    40    1
    44    26    41    1
    45    26    42    1
    46    26    43    1
