@<TRIPOS>MOLECULE
IMPHY000503
 29 33 0 0 0
SMALL
GASTEIGER

@<TRIPOS>ATOM
      1 C           2.7170    3.4041    0.0000 C.3     1  UNL1        0.0000
      2 C           2.0396    2.6669    0.0000 C.3     1  UNL1        0.0002
      3 C           3.6951    3.1822    0.0000 C.3     1  UNL1        0.0000
      4 C           1.7366    3.6259    0.0000 C.3     1  UNL1        0.0000
      5 C           2.4189    4.3630    0.0000 C.3     1  UNL1        0.0000
      6 C           2.3330    1.7104    0.0000 C.3     1  UNL1        0.0024
      7 C           1.0568    2.8888    0.0000 C.3     1  UNL1        0.0026
      8 C           4.3773    3.9193    0.0000 C.3     1  UNL1        0.0000
      9 C           3.9933    2.2256    0.0000 C.3     1  UNL1        0.0000
     10 C           3.0987    5.1001    0.0000 C.3     1  UNL1        0.0000
     11 C           1.6555    0.9733    0.0000 C.3     1  UNL1        0.0282
     12 C           3.3110    1.4885    0.0000 C.3     1  UNL1        0.0001
     13 C           0.3793    2.1565    0.0000 C.3     1  UNL1        0.0329
     14 C           4.0791    4.8759    0.0000 C.3     1  UNL1        0.0000
     15 C           5.3768    3.9074    0.0000 C.3     1  UNL1        0.0000
     16 C           4.7041    2.9699    0.0000 C.3     1  UNL1        0.0000
     17 C           0.6775    1.1975    0.0000 C.3     1  UNL1        0.1519
     18 C           2.4045    0.2910    0.0000 C.3     1  UNL1        0.0025
     19 C           1.4504    0.0000    0.0000 C.3     1  UNL1        0.0025
     20 C           4.8950    5.4508    0.0000 C.3     1  UNL1        0.0000
     21 C           3.7452    5.8253    0.0000 C.3     1  UNL1        0.0000
     22 C           5.6989    4.8544    0.0000 C.3     1  UNL1        0.0000
     23 O           0.0000    0.4604    0.0000 O.3     1  UNL1       -0.2232
     24 C           4.8997    6.4598    0.0000 C.3     1  UNL1        0.0004
     25 C           5.7657    6.9512    0.0000 C.3     1  UNL1        0.0082
     26 C           4.0434    6.9822    0.0000 C.3     1  UNL1        0.0000
     27 C           6.6197    6.4264    0.0000 C.3     1  UNL1        0.0722
     28 C           7.4880    6.9178    0.0000 C.2     1  UNL1        0.2074
     29 O           8.3491    6.3907    0.0000 O.2     1  UNL1       -0.2883
@<TRIPOS>BOND
     1     1     2    1
     2     1     3    1
     3     1     4    1
     4     1     5    1
     5     2     4    1
     6     2     6    1
     7     2     7    1
     8     3     8    1
     9     3     9    1
    10     5    10    1
    11     6    11    1
    12     6    12    1
    13     7    13    1
    14     8    14    1
    15     8    15    1
    16     8    16    1
    17     9    12    1
    18    10    14    1
    19    11    17    1
    20    11    18    1
    21    11    19    1
    22    13    17    1
    23    14    20    1
    24    14    21    1
    25    15    22    1
    26    17    23    1
    27    20    22    1
    28    20    24    1
    29    24    25    1
    30    24    26    1
    31    25    27    1
    32    27    28    1
    33    28    29    2
