@<TRIPOS>MOLECULE
IMPHY011979
 81 85 0 0 0
SMALL
GASTEIGER

@<TRIPOS>ATOM
      1 O          11.1246    2.5364    0.0000 O.3     1  UNL1       -0.3909
      2 C           5.7847   -0.6080    0.0000 C.3     1  UNL1       -0.0230
      3 C           6.6507   -1.1080    0.0000 C.3     1  UNL1       -0.0228
      4 C           4.8746   -1.1148    0.0000 C.3     1  UNL1       -0.0292
      5 C           7.5167   -0.6080    0.0000 C.3     1  UNL1       -0.0257
      6 C           7.5167    0.3920    0.0000 C.3     1  UNL1       -0.0219
      7 C           4.8666   -2.1564    0.0000 C.3     1  UNL1       -0.0287
      8 C           5.7847    0.3920    0.0000 C.3     1  UNL1       -0.0463
      9 C           6.6667   -2.1495    0.0000 C.3     1  UNL1       -0.0463
     10 C           6.6507    0.8920    0.0000 C.3     1  UNL1       -0.0463
     11 C           5.7687   -2.6772    0.0000 C.3     1  UNL1       -0.0468
     12 C           8.4106    0.9267    0.0000 C.3     1  UNL1       -0.0136
     13 C           3.9478   -0.5507    0.0000 C.3     1  UNL1       -0.0440
     14 C           8.4106   -1.1426    0.0000 C.3     1  UNL1       -0.0306
     15 C           3.9312   -2.7062    0.0000 C.3     1  UNL1       -0.0469
     16 C           4.9186   -0.1080    0.0000 C.3     1  UNL1       -0.0588
     17 C           7.5167   -1.6080    0.0000 C.3     1  UNL1       -0.0588
     18 C           2.9999   -1.0787    0.0000 C.3     1  UNL1       -0.0346
     19 C           2.9916   -2.1636    0.0000 C.3     1  UNL1       -0.0474
     20 C           9.3167    0.4128    0.0000 C.2     1  UNL1       -0.0618
     21 C           7.5167    1.3920    0.0000 C.3     1  UNL1       -0.0587
     22 C           4.8589   -3.1564    0.0000 C.3     1  UNL1       -0.0593
     23 C           8.3856    2.0114    0.0000 C.3     1  UNL1       -0.0436
     24 C           9.3167   -0.6288    0.0000 C.2     1  UNL1       -0.0836
     25 C          10.2605    0.9481    0.0000 C.3     1  UNL1        0.0123
     26 C           9.3167    2.5683    0.0000 C.3     1  UNL1       -0.0255
     27 C          10.2605    2.0331    0.0000 C.3     1  UNL1        0.0640
     28 C           2.0000   -1.0671    0.0000 C.3     1  UNL1       -0.0598
     29 C           2.5100   -0.2069    0.0000 C.3     1  UNL1       -0.0598
     30 C          11.2605    0.9442    0.0000 C.3     1  UNL1       -0.0537
     31 C          10.7572    0.0801    0.0000 C.3     1  UNL1       -0.0537
     32 H           5.6058   -1.5483    0.0000 H       1  UNL1        0.0312
     33 H           8.2561   -0.1887    0.0000 H       1  UNL1        0.0315
     34 H           5.5726    0.9746    0.0000 H       1  UNL1        0.0271
     35 H           5.1741    0.2844    0.0000 H       1  UNL1        0.0271
     36 H           6.8848   -2.7299    0.0000 H       1  UNL1        0.0271
     37 H           7.2759   -2.0340    0.0000 H       1  UNL1        0.0271
     38 H           7.0492    1.3670    0.0000 H       1  UNL1        0.0271
     39 H           6.2522    1.3670    0.0000 H       1  UNL1        0.0271
     40 H           5.3714   -3.1532    0.0000 H       1  UNL1        0.0271
     41 H           6.1697   -3.1501    0.0000 H       1  UNL1        0.0271
     42 H           9.1401    1.3630    0.0000 H       1  UNL1        0.0351
     43 H           4.3560   -0.0841    0.0000 H       1  UNL1        0.0273
     44 H           3.5579   -0.0687    0.0000 H       1  UNL1        0.0273
     45 H           8.0060   -1.6124    0.0000 H       1  UNL1        0.0310
     46 H           8.8043   -1.6217    0.0000 H       1  UNL1        0.0310
     47 H           3.5339   -3.1821    0.0000 H       1  UNL1        0.0271
     48 H           4.3322   -3.1790    0.0000 H       1  UNL1        0.0271
     49 H           5.2286    0.4290    0.0000 H       1  UNL1        0.0235
     50 H           4.3817    0.2020    0.0000 H       1  UNL1        0.0235
     51 H           4.6086   -0.6449    0.0000 H       1  UNL1        0.0235
     52 H           7.2067   -2.1449    0.0000 H       1  UNL1        0.0235
     53 H           8.0536   -1.9180    0.0000 H       1  UNL1        0.0235
     54 H           7.8267   -1.0710    0.0000 H       1  UNL1        0.0235
     55 H           2.3816   -2.0529    0.0000 H       1  UNL1        0.0271
     56 H           2.7780   -2.7457    0.0000 H       1  UNL1        0.0271
     57 H           8.1367    1.3920    0.0000 H       1  UNL1        0.0235
     58 H           7.5167    2.0120    0.0000 H       1  UNL1        0.0235
     59 H           6.8967    1.3920    0.0000 H       1  UNL1        0.0235
     60 H           4.2389   -3.1516    0.0000 H       1  UNL1        0.0235
     61 H           4.8541   -3.7764    0.0000 H       1  UNL1        0.0235
     62 H           5.4789   -3.1612    0.0000 H       1  UNL1        0.0235
     63 H           8.1631    2.5901    0.0000 H       1  UNL1        0.0272
     64 H           7.7773    1.8912    0.0000 H       1  UNL1        0.0272
     65 H           9.8524   -0.9409    0.0000 H       1  UNL1        0.0572
     66 H           9.7103    3.0473    0.0000 H       1  UNL1        0.0290
     67 H           8.9121    3.0381    0.0000 H       1  UNL1        0.0290
     68 H          10.7980    1.7241    0.0000 H       1  UNL1        0.0602
     69 H           2.0072   -0.4472    0.0000 H       1  UNL1        0.0235
     70 H           1.3800   -1.0600    0.0000 H       1  UNL1        0.0235
     71 H           1.9928   -1.6871    0.0000 H       1  UNL1        0.0235
     72 H           3.0505    0.0968    0.0000 H       1  UNL1        0.0235
     73 H           2.2062    0.3335    0.0000 H       1  UNL1        0.0235
     74 H           1.9695   -0.5107    0.0000 H       1  UNL1        0.0235
     75 H          10.2190   -0.2278    0.0000 H       1  UNL1        0.0239
     76 H          11.0651   -0.4580    0.0000 H       1  UNL1        0.0239
     77 H          11.2953    0.3881    0.0000 H       1  UNL1        0.0239
     78 H          11.2581    0.3242    0.0000 H       1  UNL1        0.0239
     79 H          11.8805    0.9418    0.0000 H       1  UNL1        0.0239
     80 H          11.2629    1.5642    0.0000 H       1  UNL1        0.0239
     81 H          11.1222    3.1564    0.0000 H       1  UNL1        0.2098
@<TRIPOS>BOND
     1    27     1    1
     2     1    81    1
     3     2     3    1
     4     2     4    1
     5     2     8    1
     6     2    16    1
     7     3     5    1
     8     3     9    1
     9     3    17    1
    10     4     7    1
    11     4    13    1
    12     4    32    1
    13     5     6    1
    14     5    14    1
    15     5    33    1
    16     6    10    1
    17     6    12    1
    18     6    21    1
    19     7    11    1
    20     7    15    1
    21     7    22    1
    22     8    10    1
    23     8    34    1
    24     8    35    1
    25     9    11    1
    26     9    36    1
    27     9    37    1
    28    10    38    1
    29    10    39    1
    30    11    40    1
    31    11    41    1
    32    12    20    1
    33    12    23    1
    34    12    42    1
    35    13    18    1
    36    13    43    1
    37    13    44    1
    38    14    24    1
    39    14    45    1
    40    14    46    1
    41    15    19    1
    42    15    47    1
    43    15    48    1
    44    16    49    1
    45    16    50    1
    46    16    51    1
    47    17    52    1
    48    17    53    1
    49    17    54    1
    50    18    19    1
    51    18    28    1
    52    18    29    1
    53    19    55    1
    54    19    56    1
    55    20    24    2
    56    20    25    1
    57    21    57    1
    58    21    58    1
    59    21    59    1
    60    22    60    1
    61    22    61    1
    62    22    62    1
    63    23    26    1
    64    23    63    1
    65    23    64    1
    66    24    65    1
    67    25    27    1
    68    25    30    1
    69    25    31    1
    70    26    27    1
    71    26    66    1
    72    26    67    1
    73    27    68    1
    74    28    69    1
    75    28    70    1
    76    28    71    1
    77    29    72    1
    78    29    73    1
    79    29    74    1
    80    30    78    1
    81    30    79    1
    82    30    80    1
    83    31    75    1
    84    31    76    1
    85    31    77    1
