@<TRIPOS>MOLECULE
IMPHY000299
 18 17 0 0 0
SMALL
GASTEIGER

@<TRIPOS>ATOM
      1 O           4.5981   -1.0600    0.0000 O.2     1  UNL1       -0.2760
      2 N           5.4641    0.4400    0.0000 N.am    1  UNL1       -0.3293
      3 C           2.8660   -0.0600    0.0000 C.3     1  UNL1       -0.0385
      4 C           3.7320    0.4400    0.0000 C.3     1  UNL1        0.0261
      5 C           2.0000    0.4400    0.0000 C.3     1  UNL1       -0.0622
      6 C           2.8660   -1.0600    0.0000 C.3     1  UNL1       -0.0622
      7 C           4.5981   -0.0600    0.0000 C.2     1  UNL1        0.2107
      8 H           2.8660    0.5600    0.0000 H       1  UNL1        0.0300
      9 H           4.1306    0.9149    0.0000 H       1  UNL1        0.0361
     10 H           3.3335    0.9149    0.0000 H       1  UNL1        0.0361
     11 H           2.3100    0.9769    0.0000 H       1  UNL1        0.0232
     12 H           1.4631    0.7500    0.0000 H       1  UNL1        0.0232
     13 H           1.6900   -0.0969    0.0000 H       1  UNL1        0.0232
     14 H           2.2460   -1.0600    0.0000 H       1  UNL1        0.0232
     15 H           2.8660   -1.6800    0.0000 H       1  UNL1        0.0232
     16 H           3.4860   -1.0600    0.0000 H       1  UNL1        0.0232
     17 H           6.0010    0.1300    0.0000 H       1  UNL1        0.1449
     18 H           5.4641    1.0600    0.0000 H       1  UNL1        0.1449
@<TRIPOS>BOND
     1     1     7    2
     2     2     7   am
     3     2    17    1
     4     2    18    1
     5     3     4    1
     6     3     5    1
     7     3     6    1
     8     3     8    1
     9     4     7    1
    10     4     9    1
    11     4    10    1
    12     5    11    1
    13     5    12    1
    14     5    13    1
    15     6    14    1
    16     6    15    1
    17     6    16    1
