@<TRIPOS>MOLECULE
IMPHY001106
 54 56 0 0 0
SMALL
GASTEIGER

@<TRIPOS>ATOM
      1 O           4.8980   -2.1266    0.0000 O.3     1  UNL1       -0.4566
      2 O           3.3144   -1.3219    0.0000 O.2     1  UNL1       -0.2505
      3 O           3.1976    3.2844    0.0000 O.3     1  UNL1       -0.4795
      4 O           4.6991    2.4210    0.0000 O.2     1  UNL1       -0.2492
      5 N           3.6089    0.6396    0.0000 N.3     1  UNL1       -0.2892
      6 C           5.8443   -0.8219    0.0000 C.3     1  UNL1        0.0142
      7 C           4.8980   -0.5172    0.0000 C.3     1  UNL1        0.0756
      8 C           4.5874    0.4333    0.0000 C.3     1  UNL1        0.0130
      9 C           5.8443   -1.8219    0.0000 C.3     1  UNL1        0.1251
     10 C           6.7103   -0.3219    0.0000 C.3     1  UNL1       -0.0421
     11 C           3.2006    1.5524    0.0000 C.3     1  UNL1        0.1082
     12 C           2.8669   -0.0309    0.0000 C.3     1  UNL1       -0.0002
     13 C           2.2062    1.4462    0.0000 C.3     1  UNL1       -0.0258
     14 C           4.3144   -1.3219    0.0000 C.2     1  UNL1        0.3124
     15 C           2.0000    0.4676    0.0000 C.3     1  UNL1       -0.0382
     16 C           7.5763   -0.8219    0.0000 C.3     1  UNL1       -0.0316
     17 C           6.7103   -2.3219    0.0000 C.2     1  UNL1       -0.0447
     18 C           3.6991    2.4193    0.0000 C.2     1  UNL1        0.3221
     19 C           6.7103   -3.3219    0.0000 C.2     1  UNL1       -0.0728
     20 C           7.5763   -1.8219    0.0000 C.2     1  UNL1       -0.0765
     21 C           7.5763   -3.8219    0.0000 C.3     1  UNL1       -0.0284
     22 C           8.4423   -3.3219    0.0000 C.3     1  UNL1       -0.0308
     23 C           8.4423   -2.3219    0.0000 C.2     1  UNL1       -0.0847
     24 C           5.8443   -3.8219    0.0000 C.3     1  UNL1       -0.0437
     25 C           6.1198   -2.3520    0.0000 C.3     1  UNL1       -0.0438
     26 H           5.7543    0.0233    0.0000 H       1  UNL1        0.0348
     27 H           4.2856   -0.4210    0.0000 H       1  UNL1        0.0430
     28 H           5.2012    0.5207    0.0000 H       1  UNL1        0.0435
     29 H           4.6080    1.0530    0.0000 H       1  UNL1        0.0435
     30 H           5.7543   -2.6671    0.0000 H       1  UNL1        0.0782
     31 H           7.1088    0.1530    0.0000 H       1  UNL1        0.0272
     32 H           6.3118    0.1530    0.0000 H       1  UNL1        0.0272
     33 H           3.8198    1.5210    0.0000 H       1  UNL1        0.0578
     34 H           2.5033   -0.5331    0.0000 H       1  UNL1        0.0427
     35 H           3.3284   -0.4449    0.0000 H       1  UNL1        0.0427
     36 H           2.2052    2.0662    0.0000 H       1  UNL1        0.0286
     37 H           1.5895    1.5099    0.0000 H       1  UNL1        0.0286
     38 H           1.4100    0.6582    0.0000 H       1  UNL1        0.0278
     39 H           1.7488   -0.0992    0.0000 H       1  UNL1        0.0278
     40 H           8.1869   -0.9296    0.0000 H       1  UNL1        0.0310
     41 H           7.7884   -0.2393    0.0000 H       1  UNL1        0.0310
     42 H           7.3209   -2.4296    0.0000 H       1  UNL1        0.0608
     43 H           7.1778   -4.2969    0.0000 H       1  UNL1        0.0313
     44 H           7.9748   -4.2969    0.0000 H       1  UNL1        0.0313
     45 H           8.6544   -3.9045    0.0000 H       1  UNL1        0.0310
     46 H           9.0529   -3.2142    0.0000 H       1  UNL1        0.0310
     47 H           8.9793   -2.0119    0.0000 H       1  UNL1        0.0572
     48 H           5.5343   -3.2850    0.0000 H       1  UNL1        0.0274
     49 H           5.3073   -4.1319    0.0000 H       1  UNL1        0.0274
     50 H           6.1543   -4.3588    0.0000 H       1  UNL1        0.0274
     51 H           5.9077   -1.7694    0.0000 H       1  UNL1        0.0274
     52 H           5.5372   -2.5640    0.0000 H       1  UNL1        0.0274
     53 H           6.3318   -2.9346    0.0000 H       1  UNL1        0.0274
     54 H           3.5066    3.8219    0.0000 H       1  UNL1        0.2951
@<TRIPOS>BOND
     1     1     9    1
     2     1    14    1
     3     2    14    2
     4     3    18    1
     5     3    54    1
     6     4    18    2
     7     5     8    1
     8     5    11    1
     9     5    12    1
    10     6     7    1
    11     6     9    1
    12     6    10    1
    13     6    26    1
    14     7     8    1
    15     7    14    1
    16     7    27    1
    17     8    28    1
    18     8    29    1
    19     9    17    1
    20     9    30    1
    21    10    16    1
    22    10    31    1
    23    10    32    1
    24    11    13    1
    25    11    18    1
    26    11    33    1
    27    12    15    1
    28    12    34    1
    29    12    35    1
    30    13    15    1
    31    13    36    1
    32    13    37    1
    33    15    38    1
    34    15    39    1
    35    16    20    1
    36    16    40    1
    37    16    41    1
    38    17    19    2
    39    17    42    1
    40    19    21    1
    41    19    24    1
    42    20    23    2
    43    20    25    1
    44    21    22    1
    45    21    43    1
    46    21    44    1
    47    22    23    1
    48    22    45    1
    49    22    46    1
    50    23    47    1
    51    24    48    1
    52    24    49    1
    53    24    50    1
    54    25    51    1
    55    25    52    1
    56    25    53    1
