@<TRIPOS>MOLECULE
IMPHY009953
 138 137 0 0 0
SMALL
GASTEIGER

@<TRIPOS>ATOM
      1 P           6.3301   -4.7500    0.0000 P.3     1  UNL1        0.2128
      2 O           5.4641   -5.2500    0.0000 O.3     1  UNL1       -0.3221
      3 O           9.7942   -2.7500    0.0000 O.3     1  UNL1       -0.4608
      4 O           7.1962   -4.2500    0.0000 O.3     1  UNL1       -0.3236
      5 O           9.7942   -4.7500    0.0000 O.3     1  UNL1       -0.4555
      6 O           8.9282   -1.2500    0.0000 O.2     1  UNL1       -0.2509
      7 O           5.8301   -3.8840    0.0000 O.co2   1  UNL1       -0.4373
      8 O           6.8301   -5.6160    0.0000 O.2     1  UNL1       -0.5172
      9 O          10.6603   -3.2500    0.0000 O.2     1  UNL1       -0.2508
     10 N           2.8660   -4.7500    0.0000 N.4     1  UNL1        0.2385
     11 C          13.2583    4.2500    0.0000 C.3     1  UNL1       -0.0531
     12 C          14.1244    4.7500    0.0000 C.3     1  UNL1       -0.0531
     13 C          13.2583    3.2500    0.0000 C.3     1  UNL1       -0.0531
     14 C          14.1244    5.7500    0.0000 C.3     1  UNL1       -0.0531
     15 C          12.3923    2.7500    0.0000 C.3     1  UNL1       -0.0531
     16 C          14.9904    6.2500    0.0000 C.3     1  UNL1       -0.0531
     17 C          12.3923    1.7500    0.0000 C.3     1  UNL1       -0.0531
     18 C          14.9904    7.2500    0.0000 C.3     1  UNL1       -0.0531
     19 C          11.5263    1.2500    0.0000 C.3     1  UNL1       -0.0530
     20 C          15.8564    7.7500    0.0000 C.3     1  UNL1       -0.0531
     21 C          15.8564    8.7500    0.0000 C.3     1  UNL1       -0.0531
     22 C          11.5263    0.2500    0.0000 C.3     1  UNL1       -0.0526
     23 C           3.7320   -5.2500    0.0000 C.3     1  UNL1       -0.0064
     24 C          16.7224    9.2500    0.0000 C.3     1  UNL1       -0.0533
     25 C          10.6603   -0.2500    0.0000 C.3     1  UNL1       -0.0430
     26 C           2.0000   -4.2500    0.0000 C.3     1  UNL1       -0.0417
     27 C           2.3660   -5.6160    0.0000 C.3     1  UNL1       -0.0417
     28 C           3.3660   -3.8840    0.0000 C.3     1  UNL1       -0.0417
     29 C          16.7224   10.2500    0.0000 C.3     1  UNL1       -0.0559
     30 C          10.6603   -1.2500    0.0000 C.3     1  UNL1        0.0449
     31 C           4.5981   -4.7500    0.0000 C.3     1  UNL1        0.0947
     32 C          17.5885   10.7500    0.0000 C.3     1  UNL1       -0.0653
     33 C           9.7942   -1.7500    0.0000 C.2     1  UNL1        0.3072
     34 C          14.1244   -4.2500    0.0000 C.3     1  UNL1       -0.0530
     35 C          13.2583   -4.7500    0.0000 C.3     1  UNL1       -0.0526
     36 C          14.9904   -4.7500    0.0000 C.3     1  UNL1       -0.0528
     37 C          12.3923   -4.2500    0.0000 C.3     1  UNL1       -0.0430
     38 C           8.9282   -4.2500    0.0000 C.3     1  UNL1        0.1604
     39 C          15.8564   -4.2500    0.0000 C.3     1  UNL1       -0.0496
     40 C           8.9282   -3.2500    0.0000 C.3     1  UNL1        0.1315
     41 C          11.5263   -4.7500    0.0000 C.3     1  UNL1        0.0450
     42 C           8.0622   -4.7500    0.0000 C.3     1  UNL1        0.0951
     43 C          16.7224   -4.7500    0.0000 C.3     1  UNL1       -0.0348
     44 C          10.6603   -4.2500    0.0000 C.2     1  UNL1        0.3075
     45 C          17.5885   -4.2500    0.0000 C.2     1  UNL1       -0.0876
     46 C          18.4545   -4.7500    0.0000 C.2     1  UNL1       -0.0842
     47 C          18.4545   -5.7500    0.0000 C.3     1  UNL1       -0.0165
     48 C          18.4545   -8.7500    0.0000 C.3     1  UNL1       -0.0496
     49 C          18.4545   -7.7500    0.0000 C.3     1  UNL1       -0.0348
     50 C          17.5885   -9.2500    0.0000 C.3     1  UNL1       -0.0530
     51 C          19.3205   -6.2500    0.0000 C.2     1  UNL1       -0.0842
     52 C          19.3205   -7.2500    0.0000 C.2     1  UNL1       -0.0876
     53 C          17.5885  -10.2500    0.0000 C.3     1  UNL1       -0.0559
     54 C          16.7224  -10.7500    0.0000 C.3     1  UNL1       -0.0653
     55 H          13.0463    4.8326    0.0000 H       1  UNL1        0.0265
     56 H          12.6477    4.1423    0.0000 H       1  UNL1        0.0265
     57 H          14.3364    4.1674    0.0000 H       1  UNL1        0.0265
     58 H          14.7349    4.8577    0.0000 H       1  UNL1        0.0265
     59 H          13.4704    2.6674    0.0000 H       1  UNL1        0.0265
     60 H          13.8689    3.3577    0.0000 H       1  UNL1        0.0265
     61 H          13.9123    6.3326    0.0000 H       1  UNL1        0.0265
     62 H          13.5138    5.6423    0.0000 H       1  UNL1        0.0265
     63 H          12.1803    3.3326    0.0000 H       1  UNL1        0.0265
     64 H          11.7817    2.6423    0.0000 H       1  UNL1        0.0265
     65 H          15.2024    5.6674    0.0000 H       1  UNL1        0.0265
     66 H          15.6010    6.3577    0.0000 H       1  UNL1        0.0265
     67 H          12.6044    1.1674    0.0000 H       1  UNL1        0.0265
     68 H          13.0029    1.8577    0.0000 H       1  UNL1        0.0265
     69 H          14.7783    7.8326    0.0000 H       1  UNL1        0.0265
     70 H          14.3798    7.1423    0.0000 H       1  UNL1        0.0265
     71 H          11.3142    1.8326    0.0000 H       1  UNL1        0.0265
     72 H          10.9157    1.1423    0.0000 H       1  UNL1        0.0265
     73 H          16.0685    7.1674    0.0000 H       1  UNL1        0.0265
     74 H          16.4670    7.8577    0.0000 H       1  UNL1        0.0265
     75 H          11.7383   -0.3326    0.0000 H       1  UNL1        0.0265
     76 H          12.1369    0.3577    0.0000 H       1  UNL1        0.0265
     77 H          15.6444    9.3326    0.0000 H       1  UNL1        0.0265
     78 H          15.2458    8.6423    0.0000 H       1  UNL1        0.0265
     79 H           3.3335   -5.7250    0.0000 H       1  UNL1        0.0838
     80 H           4.1306   -5.7250    0.0000 H       1  UNL1        0.0838
     81 H          16.9345    8.6674    0.0000 H       1  UNL1        0.0265
     82 H          17.3330    9.3577    0.0000 H       1  UNL1        0.0265
     83 H          10.4482    0.3326    0.0000 H       1  UNL1        0.0270
     84 H          10.0497   -0.3577    0.0000 H       1  UNL1        0.0270
     85 H           2.3100   -3.7131    0.0000 H       1  UNL1        0.0778
     86 H           1.4631   -3.9400    0.0000 H       1  UNL1        0.0778
     87 H           1.8291   -5.3060    0.0000 H       1  UNL1        0.0778
     88 H           2.0560   -6.1530    0.0000 H       1  UNL1        0.0778
     89 H           2.9030   -5.9260    0.0000 H       1  UNL1        0.0778
     90 H           3.9030   -4.1940    0.0000 H       1  UNL1        0.0778
     91 H           3.6760   -3.3470    0.0000 H       1  UNL1        0.0778
     92 H           1.6900   -4.7869    0.0000 H       1  UNL1        0.0778
     93 H           2.8291   -3.5740    0.0000 H       1  UNL1        0.0778
     94 H          16.5104   10.8326    0.0000 H       1  UNL1        0.0263
     95 H          16.1119   10.1423    0.0000 H       1  UNL1        0.0263
     96 H          10.8723   -1.8326    0.0000 H       1  UNL1        0.0377
     97 H          11.2708   -1.1423    0.0000 H       1  UNL1        0.0377
     98 H           4.9966   -4.2750    0.0000 H       1  UNL1        0.0618
     99 H           4.1996   -4.2750    0.0000 H       1  UNL1        0.0618
    100 H          17.8985   10.2131    0.0000 H       1  UNL1        0.0230
    101 H          18.1254   11.0600    0.0000 H       1  UNL1        0.0230
    102 H          17.2785   11.2869    0.0000 H       1  UNL1        0.0230
    103 H          14.5229   -3.7750    0.0000 H       1  UNL1        0.0265
    104 H          13.7258   -3.7750    0.0000 H       1  UNL1        0.0265
    105 H          12.8598   -5.2250    0.0000 H       1  UNL1        0.0265
    106 H          13.6569   -5.2250    0.0000 H       1  UNL1        0.0265
    107 H          14.5919   -5.2250    0.0000 H       1  UNL1        0.0265
    108 H          15.3889   -5.2250    0.0000 H       1  UNL1        0.0265
    109 H          12.7908   -3.7750    0.0000 H       1  UNL1        0.0270
    110 H          11.9938   -3.7750    0.0000 H       1  UNL1        0.0270
    111 H           9.4651   -3.9400    0.0000 H       1  UNL1        0.0792
    112 H          16.2549   -3.7750    0.0000 H       1  UNL1        0.0268
    113 H          15.4579   -3.7750    0.0000 H       1  UNL1        0.0268
    114 H           8.7162   -2.6674    0.0000 H       1  UNL1        0.0736
    115 H           8.3176   -3.3577    0.0000 H       1  UNL1        0.0736
    116 H          11.1278   -5.2250    0.0000 H       1  UNL1        0.0377
    117 H          11.9248   -5.2250    0.0000 H       1  UNL1        0.0377
    118 H           7.6636   -5.2250    0.0000 H       1  UNL1        0.0602
    119 H           8.4607   -5.2250    0.0000 H       1  UNL1        0.0602
    120 H          16.3239   -5.2250    0.0000 H       1  UNL1        0.0307
    121 H          17.1210   -5.2250    0.0000 H       1  UNL1        0.0307
    122 H          17.5885   -3.6300    0.0000 H       1  UNL1        0.0569
    123 H          18.9914   -4.4400    0.0000 H       1  UNL1        0.0572
    124 H          17.8439   -5.6423    0.0000 H       1  UNL1        0.0350
    125 H          18.2424   -6.3326    0.0000 H       1  UNL1        0.0350
    126 H          18.6665   -9.3326    0.0000 H       1  UNL1        0.0268
    127 H          19.0651   -8.6423    0.0000 H       1  UNL1        0.0268
    128 H          18.2424   -7.1674    0.0000 H       1  UNL1        0.0307
    129 H          17.8439   -7.8577    0.0000 H       1  UNL1        0.0307
    130 H          17.3764   -8.6674    0.0000 H       1  UNL1        0.0265
    131 H          16.9779   -9.3577    0.0000 H       1  UNL1        0.0265
    132 H          19.8574   -5.9400    0.0000 H       1  UNL1        0.0572
    133 H          19.8574   -7.5600    0.0000 H       1  UNL1        0.0569
    134 H          17.8005  -10.8326    0.0000 H       1  UNL1        0.0263
    135 H          18.1990  -10.1423    0.0000 H       1  UNL1        0.0263
    136 H          16.4124  -10.2131    0.0000 H       1  UNL1        0.0230
    137 H          16.1855  -11.0600    0.0000 H       1  UNL1        0.0230
    138 H          17.0324  -11.2869    0.0000 H       1  UNL1        0.0230
@<TRIPOS>UNITY_ATOM_ATTR
7 1
charge -1
10 1
charge 1
@<TRIPOS>BOND
     1     1     2    1
     2     1     4    1
     3     1     7    1
     4     1     8    2
     5     2    31    1
     6     3    33    1
     7     3    40    1
     8     4    42    1
     9    38     5    1
    10     5    44    1
    11     6    33    2
    12     9    44    2
    13    10    23    1
    14    10    26    1
    15    10    27    1
    16    10    28    1
    17    11    12    1
    18    11    13    1
    19    11    55    1
    20    11    56    1
    21    12    14    1
    22    12    57    1
    23    12    58    1
    24    13    15    1
    25    13    59    1
    26    13    60    1
    27    14    16    1
    28    14    61    1
    29    14    62    1
    30    15    17    1
    31    15    63    1
    32    15    64    1
    33    16    18    1
    34    16    65    1
    35    16    66    1
    36    17    19    1
    37    17    67    1
    38    17    68    1
    39    18    20    1
    40    18    69    1
    41    18    70    1
    42    19    22    1
    43    19    71    1
    44    19    72    1
    45    20    21    1
    46    20    73    1
    47    20    74    1
    48    21    24    1
    49    21    77    1
    50    21    78    1
    51    22    25    1
    52    22    75    1
    53    22    76    1
    54    23    31    1
    55    23    79    1
    56    23    80    1
    57    24    29    1
    58    24    81    1
    59    24    82    1
    60    25    30    1
    61    25    83    1
    62    25    84    1
    63    26    85    1
    64    26    86    1
    65    26    92    1
    66    27    87    1
    67    27    88    1
    68    27    89    1
    69    28    90    1
    70    28    91    1
    71    28    93    1
    72    29    32    1
    73    29    94    1
    74    29    95    1
    75    30    33    1
    76    30    96    1
    77    30    97    1
    78    31    98    1
    79    31    99    1
    80    32   100    1
    81    32   101    1
    82    32   102    1
    83    34    35    1
    84    34    36    1
    85    34   103    1
    86    34   104    1
    87    35    37    1
    88    35   105    1
    89    35   106    1
    90    36    39    1
    91    36   107    1
    92    36   108    1
    93    37    41    1
    94    37   109    1
    95    37   110    1
    96    38    40    1
    97    38    42    1
    98    38   111    1
    99    39    43    1
   100    39   112    1
   101    39   113    1
   102    40   114    1
   103    40   115    1
   104    41    44    1
   105    41   116    1
   106    41   117    1
   107    42   118    1
   108    42   119    1
   109    43    45    1
   110    43   120    1
   111    43   121    1
   112    45    46    2
   113    45   122    1
   114    46    47    1
   115    46   123    1
   116    47    51    1
   117    47   124    1
   118    47   125    1
   119    48    49    1
   120    48    50    1
   121    48   126    1
   122    48   127    1
   123    49    52    1
   124    49   128    1
   125    49   129    1
   126    50    53    1
   127    50   130    1
   128    50   131    1
   129    51    52    2
   130    51   132    1
   131    52   133    1
   132    53    54    1
   133    53   134    1
   134    53   135    1
   135    54   136    1
   136    54   137    1
   137    54   138    1
