@<TRIPOS>MOLECULE
IMPHY009468
 102 107 0 0 0
SMALL
GASTEIGER

@<TRIPOS>ATOM
      1 O          11.1246    3.7160    0.0000 O.3     1  UNL1       -0.4610
      2 O           6.9514   -1.6342    0.0000 O.3     1  UNL1       -0.4603
      3 O           3.9891   -2.4702    0.0000 O.3     1  UNL1       -0.4675
      4 O           5.7211   -2.4835    0.0000 O.2     1  UNL1       -0.2502
      5 O          10.2528    5.2126    0.0000 O.2     1  UNL1       -0.2512
      6 O           8.5790   -2.2266    0.0000 O.2     1  UNL1       -0.2450
      7 C           7.5167    0.5716    0.0000 C.3     1  UNL1       -0.0160
      8 C           7.5167    1.5716    0.0000 C.3     1  UNL1       -0.0256
      9 C           8.4106    2.1062    0.0000 C.3     1  UNL1       -0.0249
     10 C           6.6507    0.0716    0.0000 C.3     1  UNL1        0.0318
     11 C           9.3167    1.5924    0.0000 C.3     1  UNL1       -0.0268
     12 C           8.4106    0.0369    0.0000 C.3     1  UNL1       -0.0461
     13 C           5.7847    0.5716    0.0000 C.2     1  UNL1       -0.0594
     14 C           9.3167    0.5508    0.0000 C.3     1  UNL1       -0.0486
     15 C          10.2605    2.1276    0.0000 C.3     1  UNL1        0.0055
     16 C           4.8746    0.0647    0.0000 C.3     1  UNL1       -0.0030
     17 C           6.6507    2.0716    0.0000 C.3     1  UNL1       -0.0306
     18 C           6.6667   -0.9699    0.0000 C.3     1  UNL1       -0.0390
     19 C           8.3856    3.1909    0.0000 C.3     1  UNL1       -0.0437
     20 C           4.8666   -0.9769    0.0000 C.3     1  UNL1        0.0743
     21 C           7.8588   -0.3681    0.0000 C.3     1  UNL1       -0.0584
     22 C           5.7687   -1.4977    0.0000 C.3     1  UNL1       -0.0358
     23 C          10.2605    3.2126    0.0000 C.3     1  UNL1        0.1084
     24 C           5.7847    1.5716    0.0000 C.2     1  UNL1       -0.0835
     25 C           7.5408    2.5995    0.0000 C.3     1  UNL1       -0.0590
     26 C           7.2935   -0.6945    0.0000 C.3     1  UNL1        0.1026
     27 C           9.3167    3.7479    0.0000 C.3     1  UNL1       -0.0146
     28 C           3.9478    0.6288    0.0000 C.3     1  UNL1       -0.0403
     29 C           3.9312   -1.5266    0.0000 C.3     1  UNL1       -0.0362
     30 C           2.9999    0.1009    0.0000 C.3     1  UNL1       -0.0343
     31 C          11.2605    2.1238    0.0000 C.3     1  UNL1       -0.0562
     32 C          10.7572    1.2597    0.0000 C.3     1  UNL1       -0.0562
     33 C           2.9916   -0.9841    0.0000 C.3     1  UNL1       -0.0468
     34 C           4.8589   -1.9768    0.0000 C.2     1  UNL1        0.3136
     35 C           2.0000    0.1124    0.0000 C.3     1  UNL1       -0.0598
     36 C           2.5100    0.9726    0.0000 C.3     1  UNL1       -0.0598
     37 C          11.1207    4.7160    0.0000 C.2     1  UNL1        0.3042
     38 C           7.5942   -2.4002    0.0000 C.2     1  UNL1        0.3392
     39 C           3.9814   -3.4701    0.0000 C.3     1  UNL1        0.0817
     40 C          11.9848    5.2193    0.0000 C.3     1  UNL1        0.0332
     41 C           7.2522   -3.3399    0.0000 C.ar    1  UNL1        0.0590
     42 C           6.2674   -3.5136    0.0000 C.ar    1  UNL1       -0.0478
     43 C           7.8950   -4.1059    0.0000 C.ar    1  UNL1       -0.0478
     44 C           5.9254   -4.4532    0.0000 C.ar    1  UNL1       -0.0610
     45 C           7.5530   -5.0456    0.0000 C.ar    1  UNL1       -0.0610
     46 C           6.5682   -5.2193    0.0000 C.ar    1  UNL1       -0.0617
     47 H           8.2561    1.1523    0.0000 H       1  UNL1        0.0315
     48 H          10.0512    1.1646    0.0000 H       1  UNL1        0.0312
     49 H           8.0060   -0.4329    0.0000 H       1  UNL1        0.0271
     50 H           8.8043   -0.4421    0.0000 H       1  UNL1        0.0271
     51 H           9.5258   -0.0329    0.0000 H       1  UNL1        0.0268
     52 H           9.9276    0.6569    0.0000 H       1  UNL1        0.0268
     53 H           4.8910    0.9146    0.0000 H       1  UNL1        0.0357
     54 H           7.0492    2.5465    0.0000 H       1  UNL1        0.0310
     55 H           6.2522    2.5465    0.0000 H       1  UNL1        0.0310
     56 H           6.8848   -1.5503    0.0000 H       1  UNL1        0.0275
     57 H           7.2759   -0.8544    0.0000 H       1  UNL1        0.0275
     58 H           8.1631    3.7696    0.0000 H       1  UNL1        0.0272
     59 H           7.7773    3.0708    0.0000 H       1  UNL1        0.0272
     60 H           7.2762   -0.5802    0.0000 H       1  UNL1        0.0235
     61 H           8.0709   -0.9507    0.0000 H       1  UNL1        0.0235
     62 H           8.4414   -0.1560    0.0000 H       1  UNL1        0.0235
     63 H           5.3714   -1.9737    0.0000 H       1  UNL1        0.0276
     64 H           6.1697   -1.9706    0.0000 H       1  UNL1        0.0276
     65 H          10.7980    2.9037    0.0000 H       1  UNL1        0.0739
     66 H           5.2477    1.8816    0.0000 H       1  UNL1        0.0572
     67 H           7.8466    3.1388    0.0000 H       1  UNL1        0.0235
     68 H           7.0015    2.9054    0.0000 H       1  UNL1        0.0235
     69 H           7.2349    2.0602    0.0000 H       1  UNL1        0.0235
     70 H           7.8304   -1.0045    0.0000 H       1  UNL1        0.0706
     71 H           7.6920   -0.2195    0.0000 H       1  UNL1        0.0706
     72 H           9.7103    4.2269    0.0000 H       1  UNL1        0.0301
     73 H           8.9121    4.2176    0.0000 H       1  UNL1        0.0301
     74 H           4.3560    1.0955    0.0000 H       1  UNL1        0.0276
     75 H           3.5579    1.1108    0.0000 H       1  UNL1        0.0276
     76 H           3.5339   -2.0026    0.0000 H       1  UNL1        0.0276
     77 H           4.3322   -1.9995    0.0000 H       1  UNL1        0.0276
     78 H          11.2581    1.5038    0.0000 H       1  UNL1        0.0236
     79 H          11.8805    2.1214    0.0000 H       1  UNL1        0.0236
     80 H          11.2629    2.7438    0.0000 H       1  UNL1        0.0236
     81 H          10.2190    0.9518    0.0000 H       1  UNL1        0.0236
     82 H          11.0651    0.7216    0.0000 H       1  UNL1        0.0236
     83 H          11.2953    1.5676    0.0000 H       1  UNL1        0.0236
     84 H           2.3816   -0.8733    0.0000 H       1  UNL1        0.0271
     85 H           2.7780   -1.5662    0.0000 H       1  UNL1        0.0271
     86 H           2.0072    0.7324    0.0000 H       1  UNL1        0.0235
     87 H           1.3800    0.1196    0.0000 H       1  UNL1        0.0235
     88 H           1.9928   -0.5075    0.0000 H       1  UNL1        0.0235
     89 H           3.0505    1.2764    0.0000 H       1  UNL1        0.0235
     90 H           2.2062    1.5131    0.0000 H       1  UNL1        0.0235
     91 H           1.9695    0.6688    0.0000 H       1  UNL1        0.0235
     92 H           3.3614   -3.4653    0.0000 H       1  UNL1        0.0661
     93 H           3.9766   -4.0901    0.0000 H       1  UNL1        0.0661
     94 H           4.6013   -3.4749    0.0000 H       1  UNL1        0.0661
     95 H          12.2969    4.6836    0.0000 H       1  UNL1        0.0342
     96 H          12.5206    5.5314    0.0000 H       1  UNL1        0.0342
     97 H          11.6728    5.7550    0.0000 H       1  UNL1        0.0342
     98 H           5.8689   -3.0386    0.0000 H       1  UNL1        0.0626
     99 H           8.5056   -3.9983    0.0000 H       1  UNL1        0.0626
    100 H           5.3148   -4.5609    0.0000 H       1  UNL1        0.0618
    101 H           7.9515   -5.5206    0.0000 H       1  UNL1        0.0618
    102 H           6.3561   -5.8019    0.0000 H       1  UNL1        0.0618
@<TRIPOS>BOND
     1    23     1    1
     2     1    37    1
     3     2    26    1
     4     2    38    1
     5     3    34    1
     6     3    39    1
     7     4    34    2
     8     5    37    2
     9     6    38    2
    10     7     8    1
    11     7    10    1
    12     7    12    1
    13     7    21    1
    14     8     9    1
    15     8    17    1
    16     8    47    1
    17     9    11    1
    18     9    19    1
    19     9    25    1
    20    10    13    1
    21    10    18    1
    22    10    26    1
    23    11    14    1
    24    11    15    1
    25    11    48    1
    26    12    14    1
    27    12    49    1
    28    12    50    1
    29    13    16    1
    30    13    24    2
    31    14    51    1
    32    14    52    1
    33    15    23    1
    34    15    31    1
    35    15    32    1
    36    16    20    1
    37    16    28    1
    38    16    53    1
    39    17    24    1
    40    17    54    1
    41    17    55    1
    42    18    22    1
    43    18    56    1
    44    18    57    1
    45    19    27    1
    46    19    58    1
    47    19    59    1
    48    20    22    1
    49    20    29    1
    50    20    34    1
    51    21    60    1
    52    21    61    1
    53    21    62    1
    54    22    63    1
    55    22    64    1
    56    23    27    1
    57    23    65    1
    58    24    66    1
    59    25    67    1
    60    25    68    1
    61    25    69    1
    62    26    70    1
    63    26    71    1
    64    27    72    1
    65    27    73    1
    66    28    30    1
    67    28    74    1
    68    28    75    1
    69    29    33    1
    70    29    76    1
    71    29    77    1
    72    30    33    1
    73    30    35    1
    74    30    36    1
    75    31    78    1
    76    31    79    1
    77    31    80    1
    78    32    81    1
    79    32    82    1
    80    32    83    1
    81    33    84    1
    82    33    85    1
    83    35    86    1
    84    35    87    1
    85    35    88    1
    86    36    89    1
    87    36    90    1
    88    36    91    1
    89    37    40    1
    90    38    41    1
    91    39    92    1
    92    39    93    1
    93    39    94    1
    94    40    95    1
    95    40    96    1
    96    40    97    1
    97    41    42   ar
    98    41    43   ar
    99    42    44   ar
   100    42    98    1
   101    43    45   ar
   102    43    99    1
   103    44    46   ar
   104    44   100    1
   105    45    46   ar
   106    45   101    1
   107    46   102    1
