@<TRIPOS>MOLECULE
IMPHY014498
 51 57 0 0 0
SMALL
GASTEIGER

@<TRIPOS>ATOM
      1 O           5.6532   -2.2514    0.0000 O.2     1  UNL1       -0.2865
      2 O           4.7926    2.3147    0.0000 O.2     1  UNL1       -0.2865
      3 O           9.1772    0.7770    0.0000 O.2     1  UNL1       -0.2865
      4 O           4.7926   -1.7545    0.0000 O.2     1  UNL1       -0.2866
      5 O           9.1772   -0.2168    0.0000 O.2     1  UNL1       -0.2866
      6 O           5.6532    2.8116    0.0000 O.2     1  UNL1       -0.2866
      7 O           6.5345   -3.8640    0.0000 O.3     1  UNL1       -0.5060
      8 O           2.9554    2.3578    0.0000 O.3     1  UNL1       -0.5060
      9 O          10.1331    2.3465    0.0000 O.3     1  UNL1       -0.5060
     10 C           6.5410   -0.7199    0.0000 C.ar    1  UNL1        0.0454
     11 C           5.6750    0.7801    0.0000 C.ar    1  UNL1        0.0454
     12 C           7.4070    0.7801    0.0000 C.ar    1  UNL1        0.0454
     13 C           5.6750   -0.2199    0.0000 C.ar    1  UNL1        0.0453
     14 C           7.4070   -0.2199    0.0000 C.ar    1  UNL1        0.0453
     15 C           6.5410    1.2801    0.0000 C.ar    1  UNL1        0.0453
     16 C           6.5249   -1.7614    0.0000 C.ar    1  UNL1        0.1987
     17 C           4.7810    1.3148    0.0000 C.ar    1  UNL1        0.1987
     18 C           8.3170    1.2869    0.0000 C.ar    1  UNL1        0.1987
     19 C           4.7810   -0.7546    0.0000 C.ar    1  UNL1        0.1953
     20 C           8.3170   -0.7268    0.0000 C.ar    1  UNL1        0.1953
     21 C           6.5249    2.3216    0.0000 C.ar    1  UNL1        0.1953
     22 C           7.4230   -2.2892    0.0000 C.ar    1  UNL1        0.0744
     23 C           3.8749    0.8009    0.0000 C.ar    1  UNL1        0.0744
     24 C           8.3250    2.3285    0.0000 C.ar    1  UNL1        0.0744
     25 C           8.3250   -1.7684    0.0000 C.ar    1  UNL1        0.0366
     26 C           3.8749   -0.2407    0.0000 C.ar    1  UNL1        0.0366
     27 C           7.4230    2.8494    0.0000 C.ar    1  UNL1        0.0366
     28 C           7.4062   -3.3740    0.0000 C.ar    1  UNL1        0.1283
     29 C           2.9438    1.3578    0.0000 C.ar    1  UNL1        0.1283
     30 C           9.2729    2.8565    0.0000 C.ar    1  UNL1        0.1283
     31 C           9.2729   -2.2963    0.0000 C.ar    1  UNL1       -0.0500
     32 C           2.9438   -0.7976    0.0000 C.ar    1  UNL1       -0.0500
     33 C           7.4062    3.9342    0.0000 C.ar    1  UNL1       -0.0500
     34 C           8.3416   -3.9238    0.0000 C.ar    1  UNL1       -0.0194
     35 C           2.0000    0.8226    0.0000 C.ar    1  UNL1       -0.0194
     36 C           9.2813    3.9414    0.0000 C.ar    1  UNL1       -0.0194
     37 C           9.2813   -3.3813    0.0000 C.ar    1  UNL1       -0.0576
     38 C           2.0000   -0.2624    0.0000 C.ar    1  UNL1       -0.0576
     39 C           8.3416    4.4839    0.0000 C.ar    1  UNL1       -0.0576
     40 H           9.8062   -1.9801    0.0000 H       1  UNL1        0.0625
     41 H           2.9510   -1.4176    0.0000 H       1  UNL1        0.0625
     42 H           6.8657    4.2380    0.0000 H       1  UNL1        0.0625
     43 H           8.3393   -4.5438    0.0000 H       1  UNL1        0.0654
     44 H           1.4643    1.1347    0.0000 H       1  UNL1        0.0654
     45 H           9.8194    4.2494    0.0000 H       1  UNL1        0.0654
     46 H           9.8194   -3.6892    0.0000 H       1  UNL1        0.0619
     47 H           1.4643   -0.5745    0.0000 H       1  UNL1        0.0619
     48 H           8.3393    5.1039    0.0000 H       1  UNL1        0.0619
     49 H           6.5273   -4.4839    0.0000 H       1  UNL1        0.2922
     50 H           2.4220    2.6740    0.0000 H       1  UNL1        0.2922
     51 H          10.6736    2.6503    0.0000 H       1  UNL1        0.2922
@<TRIPOS>BOND
     1     1    16    2
     2     2    17    2
     3     3    18    2
     4     4    19    2
     5     5    20    2
     6     6    21    2
     7     7    28    1
     8     7    49    1
     9     8    29    1
    10     8    50    1
    11     9    30    1
    12     9    51    1
    13    10    13   ar
    14    10    14   ar
    15    10    16   ar
    16    11    13   ar
    17    11    15   ar
    18    11    17   ar
    19    12    14   ar
    20    12    15   ar
    21    12    18   ar
    22    13    19   ar
    23    14    20   ar
    24    15    21   ar
    25    16    22   ar
    26    17    23   ar
    27    18    24   ar
    28    19    26   ar
    29    20    25   ar
    30    21    27   ar
    31    22    25   ar
    32    22    28   ar
    33    23    26   ar
    34    23    29   ar
    35    24    27   ar
    36    24    30   ar
    37    25    31   ar
    38    26    32   ar
    39    27    33   ar
    40    28    34   ar
    41    29    35   ar
    42    30    36   ar
    43    31    37   ar
    44    31    40    1
    45    32    38   ar
    46    32    41    1
    47    33    39   ar
    48    33    42    1
    49    34    37   ar
    50    34    43    1
    51    35    38   ar
    52    35    44    1
    53    36    39   ar
    54    36    45    1
    55    37    46    1
    56    38    47    1
    57    39    48    1
