@<TRIPOS>MOLECULE
IMPHY008428
 81 83 0 0 0
SMALL
GASTEIGER

@<TRIPOS>ATOM
      1 O          10.0259    1.0667    0.0000 O.3     1  UNL1       -0.3682
      2 O          12.5950    1.9332    0.0000 O.3     1  UNL1       -0.3705
      3 O           7.9568    0.3944    0.0000 O.3     1  UNL1       -0.3705
      4 O          18.6945    1.2433    0.0000 O.3     1  UNL1       -0.3851
      5 O           2.6166   -2.6326    0.0000 O.3     1  UNL1       -0.3851
      6 C          10.8349    1.6545    0.0000 C.3     1  UNL1        0.0853
      7 C           9.2169    1.6545    0.0000 C.3     1  UNL1        0.0853
      8 C          11.7860    1.3454    0.0000 C.3     1  UNL1        0.0852
      9 C           8.2658    1.3454    0.0000 C.3     1  UNL1        0.0852
     10 C          10.5259    2.6055    0.0000 C.3     1  UNL1       -0.0217
     11 C           9.5259    2.6055    0.0000 C.3     1  UNL1       -0.0217
     12 C          12.0950    0.3944    0.0000 C.3     1  UNL1       -0.0218
     13 C           7.4568    1.9332    0.0000 C.3     1  UNL1       -0.0218
     14 C          13.4040    1.3454    0.0000 C.3     1  UNL1        0.0621
     15 C           6.9568    0.3944    0.0000 C.3     1  UNL1        0.0621
     16 C          13.0950    0.3944    0.0000 C.3     1  UNL1       -0.0239
     17 C           6.6478    1.3454    0.0000 C.3     1  UNL1       -0.0239
     18 C          14.3550    1.6545    0.0000 C.3     1  UNL1       -0.0141
     19 C           6.3690   -0.4146    0.0000 C.3     1  UNL1       -0.0141
     20 C          15.0982    0.9853    0.0000 C.3     1  UNL1       -0.0297
     21 C           5.3745   -0.3101    0.0000 C.3     1  UNL1       -0.0297
     22 C          14.5630    2.6326    0.0000 C.3     1  UNL1       -0.0598
     23 C           6.7757   -1.3282    0.0000 C.3     1  UNL1       -0.0598
     24 C          16.0492    1.2943    0.0000 C.2     1  UNL1       -0.0849
     25 C           4.7867   -1.1191    0.0000 C.2     1  UNL1       -0.0849
     26 C          16.7924    0.6252    0.0000 C.2     1  UNL1       -0.0573
     27 C           3.7922   -1.0146    0.0000 C.2     1  UNL1       -0.0573
     28 C          17.7434    0.9342    0.0000 C.3     1  UNL1        0.0786
     29 C           3.2044   -1.8236    0.0000 C.3     1  UNL1        0.0786
     30 C          18.0525   -0.0168    0.0000 C.3     1  UNL1       -0.0327
     31 C          17.4344    1.8853    0.0000 C.3     1  UNL1       -0.0327
     32 C           2.3954   -1.2358    0.0000 C.3     1  UNL1       -0.0327
     33 C           4.0134   -2.4114    0.0000 C.3     1  UNL1       -0.0327
     34 H          10.9679    0.8149    0.0000 H       1  UNL1        0.0622
     35 H           8.6158    2.2555    0.0000 H       1  UNL1        0.0622
     36 H          11.1849    0.7444    0.0000 H       1  UNL1        0.0622
     37 H           8.8668    0.7444    0.0000 H       1  UNL1        0.0622
     38 H          11.1323    2.7344    0.0000 H       1  UNL1        0.0292
     39 H          10.4611    3.2221    0.0000 H       1  UNL1        0.0292
     40 H           9.5907    3.2221    0.0000 H       1  UNL1        0.0292
     41 H           8.9194    2.7344    0.0000 H       1  UNL1        0.0292
     42 H          11.4885    0.2655    0.0000 H       1  UNL1        0.0292
     43 H          12.1598   -0.2222    0.0000 H       1  UNL1        0.0292
     44 H           7.8716    2.3940    0.0000 H       1  UNL1        0.0292
     45 H           7.0419    2.3940    0.0000 H       1  UNL1        0.0292
     46 H          13.5370    2.1850    0.0000 H       1  UNL1        0.0599
     47 H           7.3427   -0.3630    0.0000 H       1  UNL1        0.0599
     48 H          13.0302   -0.2222    0.0000 H       1  UNL1        0.0291
     49 H          13.7014    0.2655    0.0000 H       1  UNL1        0.0291
     50 H           6.3378    1.8824    0.0000 H       1  UNL1        0.0291
     51 H           6.0814    1.0933    0.0000 H       1  UNL1        0.0291
     52 H          14.9447    1.8461    0.0000 H       1  UNL1        0.0326
     53 H           6.0046   -0.9162    0.0000 H       1  UNL1        0.0326
     54 H          14.6096    0.6036    0.0000 H       1  UNL1        0.0311
     55 H          15.3893    0.4379    0.0000 H       1  UNL1        0.0311
     56 H           5.5454    0.2859    0.0000 H       1  UNL1        0.0311
     57 H           4.8172   -0.0383    0.0000 H       1  UNL1        0.0311
     58 H          15.1694    2.5037    0.0000 H       1  UNL1        0.0233
     59 H          14.6919    3.2391    0.0000 H       1  UNL1        0.0233
     60 H          13.9565    2.7615    0.0000 H       1  UNL1        0.0233
     61 H           6.2093   -1.5803    0.0000 H       1  UNL1        0.0233
     62 H           7.0279   -1.8946    0.0000 H       1  UNL1        0.0233
     63 H           7.3421   -1.0760    0.0000 H       1  UNL1        0.0233
     64 H          16.1782    1.9008    0.0000 H       1  UNL1        0.0570
     65 H           5.0389   -1.6855    0.0000 H       1  UNL1        0.0570
     66 H          16.6635    0.0188    0.0000 H       1  UNL1        0.0597
     67 H           3.5400   -0.4482    0.0000 H       1  UNL1        0.0597
     68 H          18.0241    2.0769    0.0000 H       1  UNL1        0.0260
     69 H          17.2428    2.4750    0.0000 H       1  UNL1        0.0260
     70 H          16.8448    1.6937    0.0000 H       1  UNL1        0.0260
     71 H          17.4628   -0.2084    0.0000 H       1  UNL1        0.0260
     72 H          18.2441   -0.6065    0.0000 H       1  UNL1        0.0260
     73 H          18.6421    0.1748    0.0000 H       1  UNL1        0.0260
     74 H           2.7598   -0.7342    0.0000 H       1  UNL1        0.0260
     75 H           3.6490   -2.9130    0.0000 H       1  UNL1        0.0260
     76 H           4.5150   -2.7758    0.0000 H       1  UNL1        0.0260
     77 H           4.3778   -1.9098    0.0000 H       1  UNL1        0.0260
     78 H           1.8938   -0.8714    0.0000 H       1  UNL1        0.0260
     79 H           2.0309   -1.7374    0.0000 H       1  UNL1        0.0260
     80 H          19.1553    0.8284    0.0000 H       1  UNL1        0.2106
     81 H           2.0000   -2.5678    0.0000 H       1  UNL1        0.2106
@<TRIPOS>BOND
     1     1     6    1
     2     1     7    1
     3     2     8    1
     4     2    14    1
     5     3     9    1
     6     3    15    1
     7     4    28    1
     8     4    80    1
     9     5    29    1
    10     5    81    1
    11     6     8    1
    12     6    10    1
    13     6    34    1
    14     7     9    1
    15     7    11    1
    16     7    35    1
    17     8    12    1
    18     8    36    1
    19     9    13    1
    20     9    37    1
    21    10    11    1
    22    10    38    1
    23    10    39    1
    24    11    40    1
    25    11    41    1
    26    12    16    1
    27    12    42    1
    28    12    43    1
    29    13    17    1
    30    13    44    1
    31    13    45    1
    32    14    16    1
    33    14    18    1
    34    14    46    1
    35    15    17    1
    36    15    19    1
    37    15    47    1
    38    16    48    1
    39    16    49    1
    40    17    50    1
    41    17    51    1
    42    18    20    1
    43    18    22    1
    44    18    52    1
    45    19    21    1
    46    19    23    1
    47    19    53    1
    48    20    24    1
    49    20    54    1
    50    20    55    1
    51    21    25    1
    52    21    56    1
    53    21    57    1
    54    22    58    1
    55    22    59    1
    56    22    60    1
    57    23    61    1
    58    23    62    1
    59    23    63    1
    60    24    26    2
    61    24    64    1
    62    25    27    2
    63    25    65    1
    64    26    28    1
    65    26    66    1
    66    27    29    1
    67    27    67    1
    68    28    30    1
    69    28    31    1
    70    29    32    1
    71    29    33    1
    72    30    71    1
    73    30    72    1
    74    30    73    1
    75    31    68    1
    76    31    69    1
    77    31    70    1
    78    32    74    1
    79    32    78    1
    80    32    79    1
    81    33    75    1
    82    33    76    1
    83    33    77    1
