@<TRIPOS>MOLECULE
IMPHY000312
 26 27 0 0 0
SMALL
GASTEIGER

@<TRIPOS>ATOM
      1 O           2.0000   -0.5000    0.0000 O.3     1  UNL1       -0.4611
      2 O           2.8660   -2.0000    0.0000 O.2     1  UNL1       -0.2453
      3 C           3.7320    0.5000    0.0000 C.3     1  UNL1       -0.0032
      4 C           2.8660    1.0000    0.0000 C.3     1  UNL1       -0.0025
      5 C           4.6783    0.8047    0.0000 C.3     1  UNL1       -0.0419
      6 C           3.7320   -0.5000    0.0000 C.2     1  UNL1        0.0390
      7 C           5.2619    0.0000    0.0000 C.3     1  UNL1       -0.0307
      8 C           4.6783   -0.8047    0.0000 C.2     1  UNL1       -0.0624
      9 C           2.0000    0.5000    0.0000 C.3     1  UNL1        0.0959
     10 C           2.8660    2.0000    0.0000 C.3     1  UNL1       -0.0588
     11 C           2.8660   -1.0000    0.0000 C.2     1  UNL1        0.3354
     12 C           4.9889   -1.7552    0.0000 C.3     1  UNL1       -0.0430
     13 H           3.8220    1.3452    0.0000 H       1  UNL1        0.0355
     14 H           3.4030    1.3100    0.0000 H       1  UNL1        0.0337
     15 H           5.2156    1.1140    0.0000 H       1  UNL1        0.0274
     16 H           4.4272    1.3716    0.0000 H       1  UNL1        0.0274
     17 H           5.7227   -0.4147    0.0000 H       1  UNL1        0.0310
     18 H           5.7227    0.4147    0.0000 H       1  UNL1        0.0310
     19 H           1.7880    1.0826    0.0000 H       1  UNL1        0.0700
     20 H           1.3894    0.3923    0.0000 H       1  UNL1        0.0700
     21 H           3.4860    2.0000    0.0000 H       1  UNL1        0.0234
     22 H           2.8660    2.6200    0.0000 H       1  UNL1        0.0234
     23 H           2.2460    2.0000    0.0000 H       1  UNL1        0.0234
     24 H           4.3996   -1.9479    0.0000 H       1  UNL1        0.0275
     25 H           5.1815   -2.3446    0.0000 H       1  UNL1        0.0275
     26 H           5.5783   -1.5626    0.0000 H       1  UNL1        0.0275
@<TRIPOS>BOND
     1     1     9    1
     2     1    11    1
     3     2    11    2
     4     3     4    1
     5     3     5    1
     6     3     6    1
     7     3    13    1
     8     4     9    1
     9     4    10    1
    10     4    14    1
    11     5     7    1
    12     5    15    1
    13     5    16    1
    14     6     8    2
    15     6    11    1
    16     7     8    1
    17     7    17    1
    18     7    18    1
    19     8    12    1
    20     9    19    1
    21     9    20    1
    22    10    21    1
    23    10    22    1
    24    10    23    1
    25    12    24    1
    26    12    25    1
    27    12    26    1
