@<TRIPOS>MOLECULE
IMPHY013558
 38 36 0 0 0
SMALL
GASTEIGER

@<TRIPOS>ATOM
      1 O           4.9501    2.1200    0.0000 O.3     1  UNL1       -0.3950
      2 O           4.9086    5.8600    0.0000 O.3     2  UNL2       -0.3947
      3 C           3.2181    2.1200    0.0000 C.3     1  UNL1       -0.0263
      4 C           2.3521    1.6200    0.0000 C.3     1  UNL1       -0.0327
      5 C           4.0841    1.6200    0.0000 C.3     1  UNL1        0.0445
      6 C           1.4860    2.1200    0.0000 C.2     1  UNL1       -0.0881
      7 C           3.1766    5.8600    0.0000 C.3     2  UNL2       -0.0115
      8 C           1.4445    6.8600    0.0000 C.3     2  UNL2       -0.0376
      9 C           2.3105    5.3600    0.0000 C.2     2  UNL2       -0.0858
     10 C           1.4445    5.8600    0.0000 C.2     2  UNL2       -0.0881
     11 C           4.0426    5.3600    0.0000 C.3     2  UNL2        0.0476
     12 C           0.6200    1.6200    0.0000 C.2     1  UNL1       -0.0910
     13 C           0.5785    7.3600    0.0000 C.3     2  UNL2       -0.0618
     14 C           0.6200    0.6200    0.0000 C.3     1  UNL1       -0.0468
     15 H           3.6166    2.5950    0.0000 H       1  UNL1        0.0290
     16 H           2.8196    2.5950    0.0000 H       1  UNL1        0.0290
     17 H           1.9535    1.1450    0.0000 H       1  UNL1        0.0308
     18 H           2.7506    1.1450    0.0000 H       1  UNL1        0.0308
     19 H           3.6856    1.1450    0.0000 H       1  UNL1        0.0557
     20 H           4.4826    1.1450    0.0000 H       1  UNL1        0.0557
     21 H           1.4860    2.7400    0.0000 H       1  UNL1        0.0569
     22 H           3.5751    6.3350    0.0000 H       2  UNL2        0.0329
     23 H           2.7780    6.3350    0.0000 H       2  UNL2        0.0329
     24 H           2.0551    6.7523    0.0000 H       2  UNL2        0.0305
     25 H           1.6566    7.4426    0.0000 H       2  UNL2        0.0305
     26 H           2.3105    4.7400    0.0000 H       2  UNL2        0.0570
     27 H           0.9076    5.5500    0.0000 H       2  UNL2        0.0569
     28 H           3.6440    4.8850    0.0000 H       2  UNL2        0.0560
     29 H           4.4411    4.8850    0.0000 H       2  UNL2        0.0560
     30 H           0.0831    1.9300    0.0000 H       1  UNL1        0.0566
     31 H           0.8885    7.8969    0.0000 H       2  UNL2        0.0233
     32 H           0.0415    7.6700    0.0000 H       2  UNL2        0.0233
     33 H           0.2685    6.8231    0.0000 H       2  UNL2        0.0233
     34 H           5.4871    1.8100    0.0000 H       1  UNL1        0.2094
     35 H           0.0000    0.6200    0.0000 H       1  UNL1        0.0272
     36 H           0.6200    0.0000    0.0000 H       1  UNL1        0.0272
     37 H           1.2400    0.6200    0.0000 H       1  UNL1        0.0272
     38 H           5.4455    5.5500    0.0000 H       2  UNL2        0.2094
@<TRIPOS>BOND
     1     1     5    1
     2     1    34    1
     3     2    11    1
     4     2    38    1
     5     3     4    1
     6     3     5    1
     7     3    15    1
     8     3    16    1
     9     4     6    1
    10     4    17    1
    11     4    18    1
    12     5    19    1
    13     5    20    1
    14     6    12    2
    15     6    21    1
    16     7     9    1
    17     7    11    1
    18     7    22    1
    19     7    23    1
    20     8    10    1
    21     8    13    1
    22     8    24    1
    23     8    25    1
    24     9    10    2
    25     9    26    1
    26    10    27    1
    27    11    28    1
    28    11    29    1
    29    12    14    1
    30    12    30    1
    31    13    31    1
    32    13    32    1
    33    13    33    1
    34    14    35    1
    35    14    36    1
    36    14    37    1
