@<TRIPOS>MOLECULE
IMPHY000785
 81 85 0 0 0
SMALL
GASTEIGER

@<TRIPOS>ATOM
      1 O           4.3198    0.5135    0.0000 O.3     1  UNL1       -0.3911
      2 O           2.5381   -2.5453    0.0000 O.3     1  UNL1       -0.3906
      3 O           4.3283   -4.2877    0.0000 O.3     1  UNL1       -0.4802
      4 O           2.8184   -3.4391    0.0000 O.2     1  UNL1       -0.2503
      5 O           9.7943    3.6814    0.0000 O.2     1  UNL1       -0.2927
      6 C           6.0682   -0.5211    0.0000 C.3     1  UNL1       -0.0170
      7 C           5.2022   -1.0211    0.0000 C.3     1  UNL1        0.0071
      8 C           5.2020   -0.0207    0.0000 C.3     1  UNL1       -0.0377
      9 C           6.9343   -1.0211    0.0000 C.3     1  UNL1       -0.0288
     10 C           5.2022   -2.0211    0.0000 C.3     1  UNL1       -0.0146
     11 C           7.8443   -0.5143    0.0000 C.3     1  UNL1       -0.0231
     12 C           6.0522    0.5204    0.0000 C.3     1  UNL1       -0.0460
     13 C           7.8523    0.5273    0.0000 C.3     1  UNL1       -0.0233
     14 C           4.3083   -0.4865    0.0000 C.3     1  UNL1        0.0640
     15 C           6.9343   -2.0211    0.0000 C.3     1  UNL1       -0.0489
     16 C           6.0682   -2.5211    0.0000 C.3     1  UNL1       -0.0482
     17 C           6.9502    1.0481    0.0000 C.3     1  UNL1       -0.0463
     18 C           4.3083   -2.5558    0.0000 C.3     1  UNL1        0.0940
     19 C           8.8403    0.8371    0.0000 C.3     1  UNL1       -0.0321
     20 C           8.8274   -0.8393    0.0000 C.3     1  UNL1       -0.0466
     21 C           3.4022   -1.0003    0.0000 C.3     1  UNL1        0.0009
     22 C           3.4022   -2.0419    0.0000 C.3     1  UNL1        0.0733
     23 C           9.4418   -0.0058    0.0000 C.3     1  UNL1       -0.0489
     24 C           7.8366   -1.5142    0.0000 C.3     1  UNL1       -0.0588
     25 C           7.8600    1.5273    0.0000 C.3     1  UNL1       -0.0588
     26 C           9.1583    1.7852    0.0000 C.3     1  UNL1       -0.0336
     27 C           4.8183   -3.4160    0.0000 C.3     1  UNL1       -0.0467
     28 C           3.8183   -3.4275    0.0000 C.2     1  UNL1        0.3135
     29 C          10.1384    1.9839    0.0000 C.3     1  UNL1        0.0127
     30 C           8.4962    2.5347    0.0000 C.3     1  UNL1       -0.0617
     31 C          10.4564    2.9320    0.0000 C.2     1  UNL1        0.1563
     32 C          11.4364    3.1307    0.0000 C.2     1  UNL1       -0.0205
     33 C          11.7544    4.0788    0.0000 C.2     1  UNL1       -0.0724
     34 C          12.7345    4.2774    0.0000 C.3     1  UNL1       -0.0437
     35 C          11.0923    4.8282    0.0000 C.3     1  UNL1       -0.0437
     36 H           5.4141    0.5619    0.0000 H       1  UNL1        0.0277
     37 H           4.5914    0.0869    0.0000 H       1  UNL1        0.0277
     38 H           7.6671   -1.4518    0.0000 H       1  UNL1        0.0312
     39 H           5.2088   -2.8711    0.0000 H       1  UNL1        0.0318
     40 H           5.8342    1.1008    0.0000 H       1  UNL1        0.0271
     41 H           5.4431    0.4049    0.0000 H       1  UNL1        0.0271
     42 H           3.7744   -0.1713    0.0000 H       1  UNL1        0.0600
     43 H           7.1463   -2.6037    0.0000 H       1  UNL1        0.0268
     44 H           7.5449   -1.9135    0.0000 H       1  UNL1        0.0268
     45 H           5.6697   -2.9961    0.0000 H       1  UNL1        0.0269
     46 H           6.4668   -2.9961    0.0000 H       1  UNL1        0.0269
     47 H           7.3475    1.5241    0.0000 H       1  UNL1        0.0271
     48 H           6.5493    1.5210    0.0000 H       1  UNL1        0.0271
     49 H           9.6810    0.9625    0.0000 H       1  UNL1        0.0309
     50 H           8.5720   -1.4042    0.0000 H       1  UNL1        0.0271
     51 H           9.3624   -1.1526    0.0000 H       1  UNL1        0.0271
     52 H           3.1932   -0.4166    0.0000 H       1  UNL1        0.0315
     53 H           2.7914   -1.1064    0.0000 H       1  UNL1        0.0315
     54 H           3.4058   -2.6619    0.0000 H       1  UNL1        0.0605
     55 H           9.8994   -0.4240    0.0000 H       1  UNL1        0.0268
     56 H           9.9058    0.4054    0.0000 H       1  UNL1        0.0268
     57 H           7.2166   -1.5095    0.0000 H       1  UNL1        0.0235
     58 H           7.8318   -2.1342    0.0000 H       1  UNL1        0.0235
     59 H           8.4566   -1.5190    0.0000 H       1  UNL1        0.0235
     60 H           8.4800    1.5225    0.0000 H       1  UNL1        0.0235
     61 H           7.8648    2.1473    0.0000 H       1  UNL1        0.0235
     62 H           7.2400    1.5321    0.0000 H       1  UNL1        0.0235
     63 H           9.3555    2.3731    0.0000 H       1  UNL1        0.0305
     64 H           4.2850   -3.7322    0.0000 H       1  UNL1        0.0241
     65 H           5.1344   -3.9493    0.0000 H       1  UNL1        0.0241
     66 H           5.3516   -3.0998    0.0000 H       1  UNL1        0.0241
     67 H           3.7865    0.8297    0.0000 H       1  UNL1        0.2098
     68 H           2.0000   -2.2373    0.0000 H       1  UNL1        0.2098
     69 H          10.1542    1.3641    0.0000 H       1  UNL1        0.0348
     70 H          10.7515    1.8918    0.0000 H       1  UNL1        0.0348
     71 H           8.9609    2.9452    0.0000 H       1  UNL1        0.0233
     72 H           8.0857    2.9993    0.0000 H       1  UNL1        0.0233
     73 H           8.0316    2.1242    0.0000 H       1  UNL1        0.0233
     74 H           4.0245   -4.8282    0.0000 H       1  UNL1        0.2951
     75 H          11.8469    2.6660    0.0000 H       1  UNL1        0.0652
     76 H          12.8577    3.6698    0.0000 H       1  UNL1        0.0274
     77 H          13.3421    4.4006    0.0000 H       1  UNL1        0.0274
     78 H          12.6113    4.8851    0.0000 H       1  UNL1        0.0274
     79 H          11.5570    5.2387    0.0000 H       1  UNL1        0.0274
     80 H          10.6818    5.2928    0.0000 H       1  UNL1        0.0274
     81 H          10.6277    4.4177    0.0000 H       1  UNL1        0.0274
@<TRIPOS>BOND
     1    14     1    1
     2     1    67    1
     3    22     2    1
     4     2    68    1
     5     3    28    1
     6     3    74    1
     7     4    28    2
     8     5    31    2
     9     6     7    1
    10     6     8    1
    11     6     9    1
    12     6    12    1
    13     7     8    1
    14     7    10    1
    15     7    14    1
    16     8    36    1
    17     8    37    1
    18     9    11    1
    19     9    15    1
    20     9    38    1
    21    10    16    1
    22    10    18    1
    23    10    39    1
    24    11    13    1
    25    11    20    1
    26    11    24    1
    27    12    17    1
    28    12    40    1
    29    12    41    1
    30    13    17    1
    31    13    19    1
    32    13    25    1
    33    14    21    1
    34    14    42    1
    35    15    16    1
    36    15    43    1
    37    15    44    1
    38    16    45    1
    39    16    46    1
    40    17    47    1
    41    17    48    1
    42    18    22    1
    43    18    27    1
    44    18    28    1
    45    19    23    1
    46    19    26    1
    47    19    49    1
    48    20    23    1
    49    20    50    1
    50    20    51    1
    51    21    22    1
    52    21    52    1
    53    21    53    1
    54    22    54    1
    55    23    55    1
    56    23    56    1
    57    24    57    1
    58    24    58    1
    59    24    59    1
    60    25    60    1
    61    25    61    1
    62    25    62    1
    63    26    29    1
    64    26    30    1
    65    26    63    1
    66    27    64    1
    67    27    65    1
    68    27    66    1
    69    29    31    1
    70    29    69    1
    71    29    70    1
    72    30    71    1
    73    30    72    1
    74    30    73    1
    75    31    32    1
    76    32    33    2
    77    32    75    1
    78    33    34    1
    79    33    35    1
    80    34    76    1
    81    34    77    1
    82    34    78    1
    83    35    79    1
    84    35    80    1
    85    35    81    1
