@<TRIPOS>MOLECULE
IMPHY006875
 23 25 0 0 0
SMALL
GASTEIGER

@<TRIPOS>ATOM
      1 O           4.8473    2.0750    0.0000 O.3     1  UNL1       -0.3714
      2 O           2.3439   -0.5190    0.0000 O.3     1  UNL1       -0.3925
      3 O           2.0000    1.2238    0.0000 O.2     1  UNL1       -0.2496
      4 O           3.2007   -2.0750    0.0000 O.2     1  UNL1       -0.2499
      5 C           3.6104    0.4741    0.0000 C.3     1  UNL1        0.1066
      6 C           3.9524   -0.4656    0.0000 C.3     1  UNL1        0.1008
      7 C           5.5840    1.0924    0.0000 C.3     1  UNL1        0.0755
      8 C           5.3251    0.1265    0.0000 C.3     1  UNL1        0.0732
      9 C           6.9829    0.5836    0.0000 C.3     1  UNL1       -0.0232
     10 C           6.7241   -0.3824    0.0000 C.3     1  UNL1       -0.0234
     11 C           3.2684    1.4138    0.0000 C.3     1  UNL1       -0.0461
     12 C           2.6170    0.4369    0.0000 C.2     1  UNL1        0.3238
     13 C           3.1675   -1.0756    0.0000 C.2     1  UNL1        0.3212
     14 H           4.2431   -1.2643    0.0000 H       1  UNL1        0.0451
     15 H           5.8040    1.9134    0.0000 H       1  UNL1        0.0607
     16 H           5.1051   -0.6946    0.0000 H       1  UNL1        0.0604
     17 H           7.5768    0.4058    0.0000 H       1  UNL1        0.0291
     18 H           7.1778    1.1721    0.0000 H       1  UNL1        0.0291
     19 H           6.5291   -0.9709    0.0000 H       1  UNL1        0.0291
     20 H           7.3180   -0.5601    0.0000 H       1  UNL1        0.0291
     21 H           3.8510    1.6259    0.0000 H       1  UNL1        0.0241
     22 H           3.0563    1.9964    0.0000 H       1  UNL1        0.0241
     23 H           2.6858    1.2018    0.0000 H       1  UNL1        0.0241
@<TRIPOS>BOND
     1     1     7    1
     2     1     8    1
     3     2    12    1
     4     2    13    1
     5     3    12    2
     6     4    13    2
     7     5     6    1
     8     5     7    1
     9     5    11    1
    10     5    12    1
    11     6     8    1
    12     6    13    1
    13     6    14    1
    14     7     9    1
    15     7    15    1
    16     8    10    1
    17     8    16    1
    18     9    10    1
    19     9    17    1
    20     9    18    1
    21    10    19    1
    22    10    20    1
    23    11    21    1
    24    11    22    1
    25    11    23    1
