@<TRIPOS>MOLECULE
IMPHY013698
 27 27 0 0 0
SMALL
GASTEIGER

@<TRIPOS>ATOM
      1 O           3.0878   -0.0006    0.0000 O.3     1  UNL1       -0.3723
      2 C           2.5878    1.5382    0.0000 C.3     1  UNL1       -0.0177
      3 C           3.5878    1.5382    0.0000 C.3     1  UNL1       -0.0183
      4 C           3.8968    0.5872    0.0000 C.3     1  UNL1        0.0774
      5 C           2.2788    0.5872    0.0000 C.3     1  UNL1        0.0511
      6 C           2.0000    2.3473    0.0000 C.3     1  UNL1       -0.0602
      7 C           4.8479    0.2782    0.0000 C.2     1  UNL1       -0.0554
      8 C           5.0558   -0.7000    0.0000 C.2     1  UNL1       -0.0609
      9 C           4.3126   -1.3691    0.0000 C.2     1  UNL1       -0.0577
     10 C           4.5205   -2.3473    0.0000 C.3     1  UNL1       -0.0403
     11 C           3.3616   -1.0601    0.0000 C.2     1  UNL1       -0.0958
     12 H           2.8693    2.0907    0.0000 H       1  UNL1        0.0321
     13 H           4.1942    1.6672    0.0000 H       1  UNL1        0.0297
     14 H           3.5230    2.1548    0.0000 H       1  UNL1        0.0297
     15 H           3.9938   -0.0252    0.0000 H       1  UNL1        0.0640
     16 H           1.7124    0.8394    0.0000 H       1  UNL1        0.0563
     17 H           1.9688    0.0502    0.0000 H       1  UNL1        0.0563
     18 H           2.5016    2.7117    0.0000 H       1  UNL1        0.0233
     19 H           1.6356    2.8488    0.0000 H       1  UNL1        0.0233
     20 H           1.4984    1.9828    0.0000 H       1  UNL1        0.0233
     21 H           5.3086    0.6930    0.0000 H       1  UNL1        0.0598
     22 H           5.6454   -0.8916    0.0000 H       1  UNL1        0.0618
     23 H           3.9141   -2.4762    0.0000 H       1  UNL1        0.0277
     24 H           4.6494   -2.9537    0.0000 H       1  UNL1        0.0277
     25 H           5.1270   -2.2184    0.0000 H       1  UNL1        0.0277
     26 H           3.2327   -0.4536    0.0000 H       1  UNL1        0.0537
     27 H           2.9008   -1.4750    0.0000 H       1  UNL1        0.0537
@<TRIPOS>BOND
     1     1     4    1
     2     1     5    1
     3     2     3    1
     4     2     5    1
     5     2     6    1
     6     2    12    1
     7     3     4    1
     8     3    13    1
     9     3    14    1
    10     4     7    1
    11     4    15    1
    12     5    16    1
    13     5    17    1
    14     6    18    1
    15     6    19    1
    16     6    20    1
    17     7     8    2
    18     7    21    1
    19     8     9    1
    20     8    22    1
    21     9    10    1
    22     9    11    2
    23    10    23    1
    24    10    24    1
    25    10    25    1
    26    11    26    1
    27    11    27    1
