@<TRIPOS>MOLECULE
IMPHY009060
 53 55 0 0 0
SMALL
GASTEIGER

@<TRIPOS>ATOM
      1 O           2.8660   -0.2500    0.0000 O.3     1  UNL1       -0.4947
      2 O          11.6065    1.5547    0.0000 O.3     1  UNL1       -0.4526
      3 O           4.5981    2.7500    0.0000 O.3     1  UNL1       -0.4943
      4 O          11.6065   -0.0547    0.0000 O.3     1  UNL1       -0.4526
      5 O           8.0622    2.7500    0.0000 O.2     1  UNL1       -0.5061
      6 O           6.3301    2.7500    0.0000 O.2     1  UNL1       -0.2870
      7 C           4.5981   -0.2500    0.0000 C.ar    1  UNL1       -0.0011
      8 C           4.5981   -1.2500    0.0000 C.3     1  UNL1       -0.0058
      9 C           5.4641    1.2500    0.0000 C.ar    1  UNL1        0.0639
     10 C           5.4641    0.2500    0.0000 C.ar    1  UNL1       -0.0405
     11 C           3.7320    0.2500    0.0000 C.ar    1  UNL1        0.1271
     12 C           4.5981    1.7500    0.0000 C.ar    1  UNL1        0.1344
     13 C           3.7320    1.2500    0.0000 C.ar    1  UNL1        0.0227
     14 C           3.7320   -1.7500    0.0000 C.2     1  UNL1       -0.0809
     15 C           6.3301    1.7500    0.0000 C.2     1  UNL1        0.1930
     16 C           8.9282    1.2500    0.0000 C.ar    1  UNL1        0.0202
     17 C          10.6603    1.2500    0.0000 C.ar    1  UNL1        0.1669
     18 C          10.6603    0.2500    0.0000 C.ar    1  UNL1        0.1663
     19 C           9.7942    1.7500    0.0000 C.ar    1  UNL1       -0.0055
     20 C           3.7320   -2.7500    0.0000 C.2     1  UNL1       -0.0793
     21 C           8.0622    1.7500    0.0000 C.2     1  UNL1        0.1277
     22 C           7.1962    1.2500    0.0000 C.2     1  UNL1        0.0278
     23 C           8.9282    0.2500    0.0000 C.ar    1  UNL1       -0.0474
     24 C           9.7942   -0.2500    0.0000 C.ar    1  UNL1       -0.0155
     25 C          12.1901    0.7500    0.0000 C.3     1  UNL1        0.2332
     26 C           2.8660   -3.2500    0.0000 C.3     1  UNL1       -0.0440
     27 C           4.5981   -3.2500    0.0000 C.3     1  UNL1       -0.0440
     28 C           2.0000    0.2500    0.0000 C.3     1  UNL1        0.0788
     29 C           3.7320    3.2500    0.0000 C.3     1  UNL1        0.0788
     30 H           4.8101   -1.8326    0.0000 H       1  UNL1        0.0357
     31 H           5.2087   -1.1423    0.0000 H       1  UNL1        0.0357
     32 H           6.0010   -0.0600    0.0000 H       1  UNL1        0.0630
     33 H           3.1951    1.5600    0.0000 H       1  UNL1        0.0691
     34 H           3.1951   -1.4400    0.0000 H       1  UNL1        0.0575
     35 H           9.7942    2.3700    0.0000 H       1  UNL1        0.0662
     36 H           7.1962    0.6300    0.0000 H       1  UNL1        0.0693
     37 H           8.3913   -0.0600    0.0000 H       1  UNL1        0.0626
     38 H           9.7942   -0.8700    0.0000 H       1  UNL1        0.0655
     39 H          12.6510    0.3353    0.0000 H       1  UNL1        0.1166
     40 H          12.6510    1.1647    0.0000 H       1  UNL1        0.1166
     41 H           2.5560   -2.7131    0.0000 H       1  UNL1        0.0274
     42 H           4.2881   -3.7869    0.0000 H       1  UNL1        0.0274
     43 H           5.1350   -3.5600    0.0000 H       1  UNL1        0.0274
     44 H           4.9081   -2.7131    0.0000 H       1  UNL1        0.0274
     45 H           2.3291   -3.5600    0.0000 H       1  UNL1        0.0274
     46 H           3.1760   -3.7869    0.0000 H       1  UNL1        0.0274
     47 H           2.3100    0.7869    0.0000 H       1  UNL1        0.0660
     48 H           1.4631    0.5600    0.0000 H       1  UNL1        0.0660
     49 H           1.6900   -0.2869    0.0000 H       1  UNL1        0.0660
     50 H           4.0420    3.7869    0.0000 H       1  UNL1        0.0660
     51 H           3.1951    3.5600    0.0000 H       1  UNL1        0.0660
     52 H           3.4220    2.7131    0.0000 H       1  UNL1        0.0660
     53 H           7.5252    3.0600    0.0000 H       1  UNL1        0.2922
@<TRIPOS>BOND
     1     1    11    1
     2     1    28    1
     3     2    17    1
     4     2    25    1
     5     3    12    1
     6     3    29    1
     7     4    18    1
     8     4    25    1
     9     5    21    1
    10     5    53    1
    11     6    15    2
    12     7     8    1
    13     7    10   ar
    14     7    11   ar
    15     8    14    1
    16     8    30    1
    17     8    31    1
    18     9    10   ar
    19     9    12   ar
    20     9    15    1
    21    10    32    1
    22    11    13   ar
    23    12    13   ar
    24    13    33    1
    25    14    20    2
    26    14    34    1
    27    15    22    1
    28    16    19   ar
    29    16    21    1
    30    16    23   ar
    31    17    18   ar
    32    17    19   ar
    33    18    24   ar
    34    19    35    1
    35    20    26    1
    36    20    27    1
    37    21    22    2
    38    22    36    1
    39    23    24   ar
    40    23    37    1
    41    24    38    1
    42    25    39    1
    43    25    40    1
    44    26    41    1
    45    26    45    1
    46    26    46    1
    47    27    42    1
    48    27    43    1
    49    27    44    1
    50    28    47    1
    51    28    48    1
    52    28    49    1
    53    29    50    1
    54    29    51    1
    55    29    52    1
