@<TRIPOS>MOLECULE
IMPHY017335
 18 18 0 0 0
SMALL
GASTEIGER

@<TRIPOS>ATOM
      1 O           2.8660   -1.5000    0.0000 O.2     1  UNL1       -0.2907
      2 N           4.5981   -0.5000    0.0000 N.ar    1  UNL1       -0.2460
      3 N           4.5981    1.5000    0.0000 N.ar    1  UNL1       -0.2593
      4 C           3.7320   -0.0000    0.0000 C.ar    1  UNL1        0.1241
      5 C           5.4641    0.0000    0.0000 C.ar    1  UNL1        0.0570
      6 C           2.8660   -0.5000    0.0000 C.2     1  UNL1        0.1796
      7 C           3.7320    1.0000    0.0000 C.ar    1  UNL1        0.0564
      8 C           5.4641    1.0000    0.0000 C.ar    1  UNL1        0.0486
      9 C           6.3301   -0.5000    0.0000 C.3     1  UNL1       -0.0209
     10 C           2.0000   -0.0000    0.0000 C.3     1  UNL1        0.0002
     11 H           3.1951    1.3100    0.0000 H       1  UNL1        0.0852
     12 H           6.0010    1.3100    0.0000 H       1  UNL1        0.0848
     13 H           6.0201   -1.0369    0.0000 H       1  UNL1        0.0293
     14 H           6.8671   -0.8100    0.0000 H       1  UNL1        0.0293
     15 H           6.6401    0.0369    0.0000 H       1  UNL1        0.0293
     16 H           2.3100    0.5369    0.0000 H       1  UNL1        0.0310
     17 H           1.4631    0.3100    0.0000 H       1  UNL1        0.0310
     18 H           1.6900   -0.5369    0.0000 H       1  UNL1        0.0310
@<TRIPOS>BOND
     1     1     6    2
     2     2     4   ar
     3     2     5   ar
     4     3     7   ar
     5     3     8   ar
     6     4     6    1
     7     4     7   ar
     8     5     8   ar
     9     5     9    1
    10     6    10    1
    11     7    11    1
    12     8    12    1
    13     9    13    1
    14     9    14    1
    15     9    15    1
    16    10    16    1
    17    10    17    1
    18    10    18    1
