@<TRIPOS>MOLECULE
IMPHY012593
 80 79 0 0 0
SMALL
GASTEIGER

@<TRIPOS>ATOM
      1 O          14.9904   -0.2500    0.0000 O.3     1  UNL1       -0.4642
      2 O           7.1962    0.2500    0.0000 O.3     1  UNL1       -0.4644
      3 O          14.1244    1.2500    0.0000 O.2     1  UNL1       -0.2505
      4 O           8.0622   -1.2500    0.0000 O.2     1  UNL1       -0.2509
      5 C          16.7224   -0.2500    0.0000 C.3     1  UNL1       -0.0069
      6 C          13.2583   -0.2500    0.0000 C.3     1  UNL1        0.0562
      7 C          17.5885    0.2500    0.0000 C.3     1  UNL1       -0.0471
      8 C          12.3923    0.2500    0.0000 C.3     1  UNL1       -0.0401
      9 C           5.4641    0.2500    0.0000 C.3     1  UNL1       -0.0069
     10 C          11.5263   -0.2500    0.0000 C.3     1  UNL1       -0.0523
     11 C          15.8564    0.2500    0.0000 C.3     1  UNL1        0.0953
     12 C          16.7224   -1.2500    0.0000 C.3     1  UNL1       -0.0500
     13 C           4.5981   -0.2500    0.0000 C.3     1  UNL1       -0.0471
     14 C          10.6603    0.2500    0.0000 C.3     1  UNL1       -0.0525
     15 C          18.4545   -0.2500    0.0000 C.3     1  UNL1       -0.0529
     16 C          13.2583   -1.2500    0.0000 C.3     1  UNL1       -0.0430
     17 C           5.4641    1.2500    0.0000 C.3     1  UNL1       -0.0500
     18 C           6.3301   -0.2500    0.0000 C.3     1  UNL1        0.0952
     19 C           9.7942   -0.2500    0.0000 C.3     1  UNL1       -0.0430
     20 C           3.7320    0.2500    0.0000 C.3     1  UNL1       -0.0529
     21 C          14.1244    0.2500    0.0000 C.2     1  UNL1        0.3102
     22 C          19.3205    0.2500    0.0000 C.3     1  UNL1       -0.0559
     23 C           8.9282    0.2500    0.0000 C.3     1  UNL1        0.0449
     24 C          17.5885   -1.7500    0.0000 C.3     1  UNL1       -0.0649
     25 C           2.8660   -0.2500    0.0000 C.3     1  UNL1       -0.0559
     26 C          12.3923   -1.7500    0.0000 C.3     1  UNL1       -0.0645
     27 C           4.5981    1.7500    0.0000 C.3     1  UNL1       -0.0649
     28 C           8.0622   -0.2500    0.0000 C.2     1  UNL1        0.3071
     29 C          20.1865   -0.2500    0.0000 C.3     1  UNL1       -0.0653
     30 C           2.0000    0.2500    0.0000 C.3     1  UNL1       -0.0653
     31 H          16.1855   -0.5600    0.0000 H       1  UNL1        0.0333
     32 H          13.7953   -0.5600    0.0000 H       1  UNL1        0.0413
     33 H          17.9870    0.7249    0.0000 H       1  UNL1        0.0269
     34 H          17.1899    0.7249    0.0000 H       1  UNL1        0.0269
     35 H          12.7908    0.7249    0.0000 H       1  UNL1        0.0273
     36 H          11.9938    0.7249    0.0000 H       1  UNL1        0.0273
     37 H           5.4641   -0.3700    0.0000 H       1  UNL1        0.0333
     38 H          11.1278   -0.7249    0.0000 H       1  UNL1        0.0265
     39 H          11.9248   -0.7249    0.0000 H       1  UNL1        0.0265
     40 H          16.2549    0.7249    0.0000 H       1  UNL1        0.0700
     41 H          15.4579    0.7249    0.0000 H       1  UNL1        0.0700
     42 H          16.1119   -1.1423    0.0000 H       1  UNL1        0.0266
     43 H          16.5104   -1.8326    0.0000 H       1  UNL1        0.0266
     44 H           4.1996   -0.7249    0.0000 H       1  UNL1        0.0269
     45 H           4.9966   -0.7249    0.0000 H       1  UNL1        0.0269
     46 H          11.0588    0.7249    0.0000 H       1  UNL1        0.0265
     47 H          10.2617    0.7249    0.0000 H       1  UNL1        0.0265
     48 H          18.0560   -0.7249    0.0000 H       1  UNL1        0.0265
     49 H          18.8530   -0.7249    0.0000 H       1  UNL1        0.0265
     50 H          13.4704   -1.8326    0.0000 H       1  UNL1        0.0270
     51 H          13.8689   -1.1423    0.0000 H       1  UNL1        0.0270
     52 H           6.0747    1.1423    0.0000 H       1  UNL1        0.0266
     53 H           5.6762    1.8326    0.0000 H       1  UNL1        0.0266
     54 H           5.9316   -0.7249    0.0000 H       1  UNL1        0.0700
     55 H           6.7287   -0.7249    0.0000 H       1  UNL1        0.0700
     56 H           9.3957   -0.7249    0.0000 H       1  UNL1        0.0270
     57 H          10.1928   -0.7249    0.0000 H       1  UNL1        0.0270
     58 H           4.1306    0.7249    0.0000 H       1  UNL1        0.0265
     59 H           3.3335    0.7249    0.0000 H       1  UNL1        0.0265
     60 H          19.7190    0.7249    0.0000 H       1  UNL1        0.0263
     61 H          18.9220    0.7249    0.0000 H       1  UNL1        0.0263
     62 H           9.3267    0.7249    0.0000 H       1  UNL1        0.0377
     63 H           8.5297    0.7249    0.0000 H       1  UNL1        0.0377
     64 H          17.2785   -2.2869    0.0000 H       1  UNL1        0.0230
     65 H          18.1254   -2.0600    0.0000 H       1  UNL1        0.0230
     66 H          17.8985   -1.2131    0.0000 H       1  UNL1        0.0230
     67 H           2.4675   -0.7249    0.0000 H       1  UNL1        0.0263
     68 H           3.2646   -0.7249    0.0000 H       1  UNL1        0.0263
     69 H          12.0823   -1.2131    0.0000 H       1  UNL1        0.0230
     70 H          11.8554   -2.0600    0.0000 H       1  UNL1        0.0230
     71 H          12.7023   -2.2869    0.0000 H       1  UNL1        0.0230
     72 H           4.9081    2.2869    0.0000 H       1  UNL1        0.0230
     73 H           4.0611    2.0600    0.0000 H       1  UNL1        0.0230
     74 H           4.2881    1.2131    0.0000 H       1  UNL1        0.0230
     75 H          19.8765   -0.7869    0.0000 H       1  UNL1        0.0230
     76 H          20.7235   -0.5600    0.0000 H       1  UNL1        0.0230
     77 H          20.4965    0.2869    0.0000 H       1  UNL1        0.0230
     78 H           2.3100    0.7869    0.0000 H       1  UNL1        0.0230
     79 H           1.4631    0.5600    0.0000 H       1  UNL1        0.0230
     80 H           1.6900   -0.2869    0.0000 H       1  UNL1        0.0230
@<TRIPOS>BOND
     1     1    11    1
     2     1    21    1
     3     2    18    1
     4     2    28    1
     5     3    21    2
     6     4    28    2
     7     5     7    1
     8     5    11    1
     9     5    12    1
    10     5    31    1
    11     6     8    1
    12     6    16    1
    13     6    21    1
    14     6    32    1
    15     7    15    1
    16     7    33    1
    17     7    34    1
    18     8    10    1
    19     8    35    1
    20     8    36    1
    21     9    13    1
    22     9    17    1
    23     9    18    1
    24     9    37    1
    25    10    14    1
    26    10    38    1
    27    10    39    1
    28    11    40    1
    29    11    41    1
    30    12    24    1
    31    12    42    1
    32    12    43    1
    33    13    20    1
    34    13    44    1
    35    13    45    1
    36    14    19    1
    37    14    46    1
    38    14    47    1
    39    15    22    1
    40    15    48    1
    41    15    49    1
    42    16    26    1
    43    16    50    1
    44    16    51    1
    45    17    27    1
    46    17    52    1
    47    17    53    1
    48    18    54    1
    49    18    55    1
    50    19    23    1
    51    19    56    1
    52    19    57    1
    53    20    25    1
    54    20    58    1
    55    20    59    1
    56    22    29    1
    57    22    60    1
    58    22    61    1
    59    23    28    1
    60    23    62    1
    61    23    63    1
    62    24    64    1
    63    24    65    1
    64    24    66    1
    65    25    30    1
    66    25    67    1
    67    25    68    1
    68    26    69    1
    69    26    70    1
    70    26    71    1
    71    27    72    1
    72    27    73    1
    73    27    74    1
    74    29    75    1
    75    29    76    1
    76    29    77    1
    77    30    78    1
    78    30    79    1
    79    30    80    1
