@<TRIPOS>MOLECULE
IMPHY001507
 38 40 0 0 0
SMALL
GASTEIGER

@<TRIPOS>ATOM
      1 O           2.0000   -0.4924    0.0000 O.2     1  UNL1       -0.2924
      2 C           6.3051   -1.4146    0.0000 C.3     1  UNL1       -0.0247
      3 C           5.4786   -0.8508    0.0000 C.3     1  UNL1       -0.0102
      4 C           6.3796   -0.4169    0.0000 C.3     1  UNL1       -0.0283
      5 C           4.5777   -0.4169    0.0000 C.2     1  UNL1       -0.0557
      6 C           6.6021    0.5580    0.0000 C.3     1  UNL1       -0.0489
      7 C           4.3551    0.5580    0.0000 C.3     1  UNL1       -0.0094
      8 C           7.3023   -1.4893    0.0000 C.3     1  UNL1       -0.0590
      9 C           5.7418   -2.2408    0.0000 C.3     1  UNL1       -0.0590
     10 C           4.9786    1.3398    0.0000 C.3     1  UNL1       -0.0369
     11 C           5.9786    1.3398    0.0000 C.3     1  UNL1       -0.0496
     12 C           3.7230   -0.9246    0.0000 C.2     1  UNL1       -0.0082
     13 C           3.3648    0.6446    0.0000 C.3     1  UNL1        0.0169
     14 C           2.9749   -0.2699    0.0000 C.2     1  UNL1        0.1595
     15 C           4.5447    2.2408    0.0000 C.3     1  UNL1       -0.0619
     16 C           3.6316   -1.9204    0.0000 C.3     1  UNL1       -0.0364
     17 H           5.0535   -1.5869    0.0000 H       1  UNL1        0.0354
     18 H           7.2201   -0.5435    0.0000 H       1  UNL1        0.0312
     19 H           7.1607    0.2890    0.0000 H       1  UNL1        0.0268
     20 H           6.9887    1.0428    0.0000 H       1  UNL1        0.0268
     21 H           4.0200    1.3392    0.0000 H       1  UNL1        0.0353
     22 H           7.2560   -2.1076    0.0000 H       1  UNL1        0.0235
     23 H           7.9206   -1.5356    0.0000 H       1  UNL1        0.0235
     24 H           7.3486   -0.8710    0.0000 H       1  UNL1        0.0235
     25 H           5.2295   -1.8916    0.0000 H       1  UNL1        0.0235
     26 H           5.3925   -2.7531    0.0000 H       1  UNL1        0.0235
     27 H           6.2540   -2.5901    0.0000 H       1  UNL1        0.0235
     28 H           5.3085    1.8648    0.0000 H       1  UNL1        0.0304
     29 H           6.5372    1.6089    0.0000 H       1  UNL1        0.0268
     30 H           5.8407    1.9443    0.0000 H       1  UNL1        0.0268
     31 H           3.4834    1.2531    0.0000 H       1  UNL1        0.0351
     32 H           2.7721    0.8264    0.0000 H       1  UNL1        0.0351
     33 H           5.1034    2.5098    0.0000 H       1  UNL1        0.0233
     34 H           4.2757    2.7994    0.0000 H       1  UNL1        0.0233
     35 H           3.9862    1.9718    0.0000 H       1  UNL1        0.0233
     36 H           3.0142   -1.8637    0.0000 H       1  UNL1        0.0279
     37 H           3.5750   -2.5378    0.0000 H       1  UNL1        0.0279
     38 H           4.2490   -1.9770    0.0000 H       1  UNL1        0.0279
@<TRIPOS>BOND
     1     1    14    2
     2     2     3    1
     3     2     4    1
     4     2     8    1
     5     2     9    1
     6     3     4    1
     7     3     5    1
     8     3    17    1
     9     4     6    1
    10     4    18    1
    11     5     7    1
    12     5    12    2
    13     6    11    1
    14     6    19    1
    15     6    20    1
    16     7    10    1
    17     7    13    1
    18     7    21    1
    19     8    22    1
    20     8    23    1
    21     8    24    1
    22     9    25    1
    23     9    26    1
    24     9    27    1
    25    10    11    1
    26    10    15    1
    27    10    28    1
    28    11    29    1
    29    11    30    1
    30    12    14    1
    31    12    16    1
    32    13    14    1
    33    13    31    1
    34    13    32    1
    35    15    33    1
    36    15    34    1
    37    15    35    1
    38    16    36    1
    39    16    37    1
    40    16    38    1
