@<TRIPOS>MOLECULE
IMPHY014470
 73 73 0 0 0
SMALL
GASTEIGER

@<TRIPOS>ATOM
      1 O           5.9815   -3.5520    0.0000 O.3     1  UNL1       -0.4628
      2 O           3.5778   -3.9349    0.0000 O.3     1  UNL1       -0.3806
      3 O           4.7407   -4.3953    0.0000 O.2     1  UNL1       -0.2479
      4 C           6.4815    4.3953    0.0000 C.3     1  UNL1       -0.0531
      5 C           5.4815    4.3953    0.0000 C.3     1  UNL1       -0.0531
      6 C           7.4501    4.1466    0.0000 C.3     1  UNL1       -0.0531
      7 C           4.5129    4.1466    0.0000 C.3     1  UNL1       -0.0531
      8 C           8.3264    3.6648    0.0000 C.3     1  UNL1       -0.0531
      9 C           3.6366    3.6648    0.0000 C.3     1  UNL1       -0.0531
     10 C           9.0554    2.9803    0.0000 C.3     1  UNL1       -0.0531
     11 C           2.9076    2.9803    0.0000 C.3     1  UNL1       -0.0531
     12 C           9.5912    2.1359    0.0000 C.3     1  UNL1       -0.0531
     13 C           2.3718    2.1359    0.0000 C.3     1  UNL1       -0.0531
     14 C           9.9002    1.1849    0.0000 C.3     1  UNL1       -0.0531
     15 C           2.0628    1.1849    0.0000 C.3     1  UNL1       -0.0531
     16 C           9.9630    0.1869    0.0000 C.3     1  UNL1       -0.0531
     17 C           2.0000    0.1869    0.0000 C.3     1  UNL1       -0.0531
     18 C           9.7756   -0.7954    0.0000 C.3     1  UNL1       -0.0531
     19 C           2.1874   -0.7954    0.0000 C.3     1  UNL1       -0.0530
     20 C           9.3498   -1.7002    0.0000 C.3     1  UNL1       -0.0530
     21 C           2.6132   -1.7002    0.0000 C.3     1  UNL1       -0.0502
     22 C           8.7124   -2.4708    0.0000 C.3     1  UNL1       -0.0500
     23 C           3.2506   -2.4708    0.0000 C.3     1  UNL1       -0.0164
     24 C           7.9034   -3.0586    0.0000 C.3     1  UNL1       -0.0185
     25 C           4.0596   -3.0586    0.0000 C.3     1  UNL1        0.1516
     26 C           6.9736   -3.4267    0.0000 C.3     1  UNL1        0.0925
     27 C           4.9894   -3.4267    0.0000 C.2     1  UNL1        0.3360
     28 H           6.8767    4.8730    0.0000 H       1  UNL1        0.0265
     29 H           6.4038    3.7802    0.0000 H       1  UNL1        0.0265
     30 H           5.7455    4.9562    0.0000 H       1  UNL1        0.0265
     31 H           5.5592    3.7802    0.0000 H       1  UNL1        0.0265
     32 H           7.9517    4.5110    0.0000 H       1  UNL1        0.0265
     33 H           7.2218    3.5701    0.0000 H       1  UNL1        0.0265
     34 H           4.6291    4.7556    0.0000 H       1  UNL1        0.0265
     35 H           4.7412    3.5701    0.0000 H       1  UNL1        0.0265
     36 H           8.9028    3.8930    0.0000 H       1  UNL1        0.0265
     37 H           7.9620    3.1632    0.0000 H       1  UNL1        0.0265
     38 H           3.5977    4.2836    0.0000 H       1  UNL1        0.0265
     39 H           4.0010    3.1632    0.0000 H       1  UNL1        0.0265
     40 H           9.6705    3.0580    0.0000 H       1  UNL1        0.0265
     41 H           8.5776    2.5851    0.0000 H       1  UNL1        0.0265
     42 H           2.7160    3.5699    0.0000 H       1  UNL1        0.0265
     43 H           3.3854    2.5851    0.0000 H       1  UNL1        0.0265
     44 H          10.2063    2.0582    0.0000 H       1  UNL1        0.0265
     45 H           9.0302    1.8720    0.0000 H       1  UNL1        0.0265
     46 H           2.0396    2.6594    0.0000 H       1  UNL1        0.0265
     47 H           2.9328    1.8720    0.0000 H       1  UNL1        0.0265
     48 H          10.4767    0.9566    0.0000 H       1  UNL1        0.0265
     49 H           9.2912    1.0687    0.0000 H       1  UNL1        0.0265
     50 H           1.6108    1.6093    0.0000 H       1  UNL1        0.0265
     51 H           2.6718    1.0687    0.0000 H       1  UNL1        0.0265
     52 H          10.4646   -0.1776    0.0000 H       1  UNL1        0.0265
     53 H           9.3442    0.2258    0.0000 H       1  UNL1        0.0265
     54 H           1.4567    0.4855    0.0000 H       1  UNL1        0.0265
     55 H           2.6188    0.2258    0.0000 H       1  UNL1        0.0265
     56 H          10.1708   -1.2732    0.0000 H       1  UNL1        0.0265
     57 H           9.1860   -0.6038    0.0000 H       1  UNL1        0.0265
     58 H           1.5869   -0.6412    0.0000 H       1  UNL1        0.0265
     59 H           2.7770   -0.6038    0.0000 H       1  UNL1        0.0265
     60 H           9.6138   -2.2612    0.0000 H       1  UNL1        0.0265
     61 H           8.8263   -1.3680    0.0000 H       1  UNL1        0.0265
     62 H           1.9932   -1.7002    0.0000 H       1  UNL1        0.0266
     63 H           3.1366   -1.3680    0.0000 H       1  UNL1        0.0266
     64 H           8.8286   -3.0798    0.0000 H       1  UNL1        0.0266
     65 H           8.2880   -2.0188    0.0000 H       1  UNL1        0.0266
     66 H           2.6501   -2.6250    0.0000 H       1  UNL1        0.0295
     67 H           3.6750   -2.0188    0.0000 H       1  UNL1        0.0295
     68 H           7.8644   -3.6773    0.0000 H       1  UNL1        0.0298
     69 H           7.6047   -2.5152    0.0000 H       1  UNL1        0.0298
     70 H           4.2696   -3.6419    0.0000 H       1  UNL1        0.0710
     71 H           6.7820   -4.0163    0.0000 H       1  UNL1        0.0697
     72 H           6.8194   -2.8262    0.0000 H       1  UNL1        0.0697
     73 H           2.9580   -3.9478    0.0000 H       1  UNL1        0.2105
@<TRIPOS>BOND
     1     1    26    1
     2     1    27    1
     3     2    25    1
     4     2    73    1
     5     3    27    2
     6     4     5    1
     7     4     6    1
     8     4    28    1
     9     4    29    1
    10     5     7    1
    11     5    30    1
    12     5    31    1
    13     6     8    1
    14     6    32    1
    15     6    33    1
    16     7     9    1
    17     7    34    1
    18     7    35    1
    19     8    10    1
    20     8    36    1
    21     8    37    1
    22     9    11    1
    23     9    38    1
    24     9    39    1
    25    10    12    1
    26    10    40    1
    27    10    41    1
    28    11    13    1
    29    11    42    1
    30    11    43    1
    31    12    14    1
    32    12    44    1
    33    12    45    1
    34    13    15    1
    35    13    46    1
    36    13    47    1
    37    14    16    1
    38    14    48    1
    39    14    49    1
    40    15    17    1
    41    15    50    1
    42    15    51    1
    43    16    18    1
    44    16    52    1
    45    16    53    1
    46    17    19    1
    47    17    54    1
    48    17    55    1
    49    18    20    1
    50    18    56    1
    51    18    57    1
    52    19    21    1
    53    19    58    1
    54    19    59    1
    55    20    22    1
    56    20    60    1
    57    20    61    1
    58    21    23    1
    59    21    62    1
    60    21    63    1
    61    22    24    1
    62    22    64    1
    63    22    65    1
    64    23    25    1
    65    23    66    1
    66    23    67    1
    67    24    26    1
    68    24    68    1
    69    24    69    1
    70    25    27    1
    71    25    70    1
    72    26    71    1
    73    26    72    1
