@<TRIPOS>MOLECULE
IMPHY012829
 39 40 0 0 0
SMALL
GASTEIGER

@<TRIPOS>ATOM
      1 O           6.0812   -1.7447    0.0000 O.3     1  UNL1       -0.4567
      2 O           7.6648   -0.9400    0.0000 O.2     1  UNL1       -0.2505
      3 C           5.1350   -0.4400    0.0000 C.3     1  UNL1        0.0128
      4 C           6.0812   -0.1353    0.0000 C.3     1  UNL1        0.0601
      5 C           5.1350   -1.4400    0.0000 C.3     1  UNL1        0.1250
      6 C           4.2690    0.0600    0.0000 C.3     1  UNL1       -0.0421
      7 C           4.2690    1.0600    0.0000 C.3     1  UNL1       -0.0316
      8 C           6.6648   -0.9400    0.0000 C.2     1  UNL1        0.3109
      9 C           4.2690   -1.9400    0.0000 C.2     1  UNL1       -0.0447
     10 C           6.3919    0.8153    0.0000 C.3     1  UNL1       -0.0519
     11 C           3.4030    1.5600    0.0000 C.2     1  UNL1       -0.0765
     12 C           3.4030   -1.4400    0.0000 C.2     1  UNL1       -0.0728
     13 C           3.4030   -0.4400    0.0000 C.3     1  UNL1       -0.0284
     14 C           2.5369    0.0600    0.0000 C.3     1  UNL1       -0.0308
     15 C           2.5369    1.0600    0.0000 C.2     1  UNL1       -0.0847
     16 C           3.4030    2.5600    0.0000 C.3     1  UNL1       -0.0438
     17 C           2.5369   -1.9400    0.0000 C.3     1  UNL1       -0.0437
     18 H           5.2006    0.1765    0.0000 H       1  UNL1        0.0348
     19 H           5.6438    0.3041    0.0000 H       1  UNL1        0.0415
     20 H           5.2006   -2.0565    0.0000 H       1  UNL1        0.0782
     21 H           3.6584    0.1677    0.0000 H       1  UNL1        0.0272
     22 H           4.0569   -0.5226    0.0000 H       1  UNL1        0.0272
     23 H           4.8796    0.9523    0.0000 H       1  UNL1        0.0310
     24 H           4.4810    1.6426    0.0000 H       1  UNL1        0.0310
     25 H           4.2690   -2.5600    0.0000 H       1  UNL1        0.0608
     26 H           6.9812    0.6226    0.0000 H       1  UNL1        0.0238
     27 H           6.5845    1.4046    0.0000 H       1  UNL1        0.0238
     28 H           5.8026    1.0079    0.0000 H       1  UNL1        0.0238
     29 H           4.0135   -0.5477    0.0000 H       1  UNL1        0.0313
     30 H           3.6150    0.1426    0.0000 H       1  UNL1        0.0313
     31 H           1.9264    0.1677    0.0000 H       1  UNL1        0.0310
     32 H           2.3249   -0.5226    0.0000 H       1  UNL1        0.0310
     33 H           2.0000    1.3700    0.0000 H       1  UNL1        0.0572
     34 H           4.0230    2.5600    0.0000 H       1  UNL1        0.0274
     35 H           3.4030    3.1800    0.0000 H       1  UNL1        0.0274
     36 H           2.7830    2.5600    0.0000 H       1  UNL1        0.0274
     37 H           2.2269   -1.4031    0.0000 H       1  UNL1        0.0274
     38 H           2.0000   -2.2500    0.0000 H       1  UNL1        0.0274
     39 H           2.8469   -2.4769    0.0000 H       1  UNL1        0.0274
@<TRIPOS>BOND
     1     1     5    1
     2     1     8    1
     3     2     8    2
     4     3     4    1
     5     3     5    1
     6     3     6    1
     7     3    18    1
     8     4     8    1
     9     4    10    1
    10     4    19    1
    11     5     9    1
    12     5    20    1
    13     6     7    1
    14     6    21    1
    15     6    22    1
    16     7    11    1
    17     7    23    1
    18     7    24    1
    19     9    12    2
    20     9    25    1
    21    10    26    1
    22    10    27    1
    23    10    28    1
    24    11    15    2
    25    11    16    1
    26    12    13    1
    27    12    17    1
    28    13    14    1
    29    13    29    1
    30    13    30    1
    31    14    15    1
    32    14    31    1
    33    14    32    1
    34    15    33    1
    35    16    34    1
    36    16    35    1
    37    16    36    1
    38    17    37    1
    39    17    38    1
    40    17    39    1
