@<TRIPOS>MOLECULE
IMPHY002234
 42 43 0 0 0
SMALL
GASTEIGER

@<TRIPOS>ATOM
      1 O           7.1260    1.1486    0.0000 O.3     1  UNL1       -0.3886
      2 C           5.3742    0.2488    0.0000 C.3     1  UNL1       -0.0056
      3 C           5.3792   -0.7512    0.0000 C.3     1  UNL1       -0.0146
      4 C           6.3189    0.5582    0.0000 C.3     1  UNL1        0.0667
      5 C           4.5893    0.8684    0.0000 C.3     1  UNL1       -0.0440
      6 C           6.3269   -1.0512    0.0000 C.3     1  UNL1       -0.0436
      7 C           6.9065   -0.2436    0.0000 C.3     1  UNL1       -0.0234
      8 C           3.6155    0.6410    0.0000 C.3     1  UNL1       -0.0381
      9 C           4.6005   -1.3786    0.0000 C.2     1  UNL1       -0.0732
     10 C           3.1861   -0.2621    0.0000 C.3     1  UNL1       -0.0463
     11 C           3.6244   -1.1609    0.0000 C.3     1  UNL1       -0.0315
     12 C           2.9881    1.4197    0.0000 C.3     1  UNL1       -0.0439
     13 C           6.0068    1.5083    0.0000 C.3     1  UNL1       -0.0358
     14 C           4.8278   -2.3524    0.0000 C.2     1  UNL1       -0.0992
     15 C           2.0000    1.2657    0.0000 C.3     1  UNL1       -0.0624
     16 C           3.3488    2.3524    0.0000 C.3     1  UNL1       -0.0624
     17 H           5.5229    1.0857    0.0000 H       1  UNL1        0.0334
     18 H           5.5362   -1.5866    0.0000 H       1  UNL1        0.0349
     19 H           5.0721    1.2574    0.0000 H       1  UNL1        0.0272
     20 H           4.3175    1.4256    0.0000 H       1  UNL1        0.0272
     21 H           6.0787   -1.6194    0.0000 H       1  UNL1        0.0272
     22 H           6.8658   -1.3578    0.0000 H       1  UNL1        0.0272
     23 H           7.3694   -0.6560    0.0000 H       1  UNL1        0.0293
     24 H           7.3653    0.1734    0.0000 H       1  UNL1        0.0293
     25 H           3.8173    1.2272    0.0000 H       1  UNL1        0.0303
     26 H           2.6994    0.1220    0.0000 H       1  UNL1        0.0271
     27 H           2.7033   -0.6511    0.0000 H       1  UNL1        0.0271
     28 H           3.0207   -1.3019    0.0000 H       1  UNL1        0.0310
     29 H           3.6275   -1.7809    0.0000 H       1  UNL1        0.0310
     30 H           2.7644    0.8414    0.0000 H       1  UNL1        0.0298
     31 H           6.5958    1.7018    0.0000 H       1  UNL1        0.0257
     32 H           5.8133    2.0973    0.0000 H       1  UNL1        0.0257
     33 H           5.4177    1.3148    0.0000 H       1  UNL1        0.0257
     34 H           7.6932    0.8983    0.0000 H       1  UNL1        0.2102
     35 H           4.3755   -2.7764    0.0000 H       1  UNL1        0.0534
     36 H           5.4212   -2.5322    0.0000 H       1  UNL1        0.0534
     37 H           3.9270    2.1288    0.0000 H       1  UNL1        0.0232
     38 H           3.5724    2.9306    0.0000 H       1  UNL1        0.0232
     39 H           1.9045    1.8783    0.0000 H       1  UNL1        0.0232
     40 H           2.7705    2.5760    0.0000 H       1  UNL1        0.0232
     41 H           1.3874    1.1703    0.0000 H       1  UNL1        0.0232
     42 H           2.0955    0.6531    0.0000 H       1  UNL1        0.0232
@<TRIPOS>BOND
     1     4     1    1
     2     1    34    1
     3     2     3    1
     4     2     4    1
     5     2     5    1
     6     2    17    1
     7     3     6    1
     8     3     9    1
     9     3    18    1
    10     4     7    1
    11     4    13    1
    12     5     8    1
    13     5    19    1
    14     5    20    1
    15     6     7    1
    16     6    21    1
    17     6    22    1
    18     7    23    1
    19     7    24    1
    20     8    10    1
    21     8    12    1
    22     8    25    1
    23     9    11    1
    24     9    14    2
    25    10    11    1
    26    10    26    1
    27    10    27    1
    28    11    28    1
    29    11    29    1
    30    12    15    1
    31    12    16    1
    32    12    30    1
    33    13    31    1
    34    13    32    1
    35    13    33    1
    36    14    35    1
    37    14    36    1
    38    15    39    1
    39    15    41    1
    40    15    42    1
    41    16    37    1
    42    16    38    1
    43    16    40    1
