@<TRIPOS>MOLECULE
IMPHY003366
 47 50 0 0 0
SMALL
GASTEIGER

@<TRIPOS>ATOM
      1 O           9.0084   -1.2938    0.0000 O.3     1  UNL1       -0.4513
      2 O           5.4641   -1.4890    0.0000 O.3     1  UNL1       -0.4226
      3 O           9.3191    1.2662    0.0000 O.2     1  UNL1       -0.2832
      4 O           4.5981    0.0110    0.0000 O.2     1  UNL1       -0.2452
      5 C           8.0622    0.0110    0.0000 C.ar    1  UNL1        0.0678
      6 C           8.0622   -0.9890    0.0000 C.ar    1  UNL1        0.1430
      7 C           9.5920   -0.4890    0.0000 C.2     1  UNL1        0.1762
      8 C           9.0084    0.3157    0.0000 C.2     1  UNL1        0.2315
      9 C          11.0920    0.3770    0.0000 C.ar    1  UNL1       -0.0185
     10 C          10.5920   -0.4890    0.0000 C.2     1  UNL1       -0.0081
     11 C           7.1962    0.5110    0.0000 C.ar    1  UNL1       -0.0438
     12 C           7.1962   -1.4890    0.0000 C.ar    1  UNL1        0.0238
     13 C          12.0920    0.3770    0.0000 C.ar    1  UNL1       -0.0432
     14 C           6.3301   -0.9890    0.0000 C.ar    1  UNL1        0.1355
     15 C           6.3301    0.0110    0.0000 C.ar    1  UNL1       -0.0183
     16 C          10.5920    1.2430    0.0000 C.ar    1  UNL1       -0.0542
     17 C          12.5920    1.2430    0.0000 C.ar    1  UNL1       -0.0583
     18 C          12.5920   -0.4890    0.0000 C.3     1  UNL1       -0.0391
     19 C          11.0920    2.1090    0.0000 C.ar    1  UNL1       -0.0612
     20 C          12.0920    2.1090    0.0000 C.ar    1  UNL1       -0.0615
     21 C           4.5981   -0.9890    0.0000 C.2     1  UNL1        0.3372
     22 C           2.8660    0.0110    0.0000 C.ar    1  UNL1       -0.0248
     23 C           3.7320   -1.4890    0.0000 C.2     1  UNL1        0.0235
     24 C           2.8660   -0.9890    0.0000 C.2     1  UNL1       -0.0478
     25 C           3.7320    0.5110    0.0000 C.ar    1  UNL1       -0.0546
     26 C           2.0000    0.5110    0.0000 C.ar    1  UNL1       -0.0546
     27 C           3.7320    1.5110    0.0000 C.ar    1  UNL1       -0.0612
     28 C           2.0000    1.5110    0.0000 C.ar    1  UNL1       -0.0612
     29 C           2.8660    2.0110    0.0000 C.ar    1  UNL1       -0.0617
     30 H          10.9020   -1.0260    0.0000 H       1  UNL1        0.0661
     31 H           7.1962    1.1310    0.0000 H       1  UNL1        0.0627
     32 H           7.1962   -2.1090    0.0000 H       1  UNL1        0.0691
     33 H           5.7932    0.3210    0.0000 H       1  UNL1        0.0654
     34 H           9.9720    1.2430    0.0000 H       1  UNL1        0.0624
     35 H          13.2120    1.2430    0.0000 H       1  UNL1        0.0620
     36 H          12.0551   -0.7990    0.0000 H       1  UNL1        0.0278
     37 H          12.9020   -1.0260    0.0000 H       1  UNL1        0.0278
     38 H          13.1289   -0.1790    0.0000 H       1  UNL1        0.0278
     39 H          10.7820    2.6460    0.0000 H       1  UNL1        0.0618
     40 H          12.4020    2.6460    0.0000 H       1  UNL1        0.0618
     41 H           3.7320   -2.1090    0.0000 H       1  UNL1        0.0689
     42 H           2.3291   -1.2990    0.0000 H       1  UNL1        0.0626
     43 H           4.2690    0.2010    0.0000 H       1  UNL1        0.0623
     44 H           1.4631    0.2010    0.0000 H       1  UNL1        0.0623
     45 H           4.2690    1.8210    0.0000 H       1  UNL1        0.0618
     46 H           1.4631    1.8210    0.0000 H       1  UNL1        0.0618
     47 H           2.8660    2.6310    0.0000 H       1  UNL1        0.0618
@<TRIPOS>BOND
     1     1     6    1
     2     1     7    1
     3     2    14    1
     4     2    21    1
     5     3     8    2
     6     4    21    2
     7     5     6   ar
     8     5     8    1
     9     5    11   ar
    10     6    12   ar
    11     7     8    1
    12     7    10    2
    13     9    10    1
    14     9    13   ar
    15     9    16   ar
    16    10    30    1
    17    11    15   ar
    18    11    31    1
    19    12    14   ar
    20    12    32    1
    21    13    17   ar
    22    13    18    1
    23    14    15   ar
    24    15    33    1
    25    16    19   ar
    26    16    34    1
    27    17    20   ar
    28    17    35    1
    29    18    36    1
    30    18    37    1
    31    18    38    1
    32    19    20   ar
    33    19    39    1
    34    20    40    1
    35    21    23    1
    36    22    24    1
    37    22    25   ar
    38    22    26   ar
    39    23    24    2
    40    23    41    1
    41    24    42    1
    42    25    27   ar
    43    25    43    1
    44    26    28   ar
    45    26    44    1
    46    27    29   ar
    47    27    45    1
    48    28    29   ar
    49    28    46    1
    50    29    47    1
