@<TRIPOS>MOLECULE
IMPHY015825
 18 17 0 0 0
SMALL
GASTEIGER

@<TRIPOS>ATOM
      1 O           6.3301    0.7500    0.0000 O.3     1  UNL1       -0.3915
      2 O           2.8660    0.7500    0.0000 O.3     1  UNL1       -0.4679
      3 O           3.7320   -0.7500    0.0000 O.2     1  UNL1       -0.2508
      4 C           5.4641    0.2500    0.0000 C.3     1  UNL1        0.0625
      5 C           4.5981    0.7500    0.0000 C.3     1  UNL1        0.0706
      6 C           5.4641   -0.7500    0.0000 C.3     1  UNL1       -0.0384
      7 C           3.7320    0.2500    0.0000 C.2     1  UNL1        0.3093
      8 C           2.0000    0.2500    0.0000 C.3     1  UNL1        0.0817
      9 H           5.4641    0.8700    0.0000 H       1  UNL1        0.0596
     10 H           4.9966    1.2250    0.0000 H       1  UNL1        0.0403
     11 H           4.1996    1.2250    0.0000 H       1  UNL1        0.0403
     12 H           4.8441   -0.7500    0.0000 H       1  UNL1        0.0255
     13 H           5.4641   -1.3700    0.0000 H       1  UNL1        0.0255
     14 H           6.0841   -0.7500    0.0000 H       1  UNL1        0.0255
     15 H           6.8671    0.4400    0.0000 H       1  UNL1        0.2098
     16 H           1.6900    0.7869    0.0000 H       1  UNL1        0.0661
     17 H           1.4631   -0.0600    0.0000 H       1  UNL1        0.0661
     18 H           2.3100   -0.2869    0.0000 H       1  UNL1        0.0661
@<TRIPOS>BOND
     1     1     4    1
     2     1    15    1
     3     2     7    1
     4     2     8    1
     5     3     7    2
     6     4     5    1
     7     4     6    1
     8     4     9    1
     9     5     7    1
    10     5    10    1
    11     5    11    1
    12     6    12    1
    13     6    13    1
    14     6    14    1
    15     8    16    1
    16     8    17    1
    17     8    18    1
