@<TRIPOS>MOLECULE
IMPHY006331
 22 20 0 0 0
SMALL
GASTEIGER

@<TRIPOS>ATOM
      1 CL          2.0190    0.0000    0.0000 Cl      1  UNL1        0.0000
      2 O           4.0010    4.4030    0.0000 O.3     2  UNL2       -0.3898
      3 N           1.4030    3.9030    0.0000 N.4     2  UNL2        0.2385
      4 C           2.2690    4.4030    0.0000 C.3     2  UNL2       -0.0071
      5 C           0.5369    3.4030    0.0000 C.3     2  UNL2       -0.0417
      6 C           0.9030    4.7690    0.0000 C.3     2  UNL2       -0.0417
      7 C           1.9030    3.0369    0.0000 C.3     2  UNL2       -0.0417
      8 C           3.1350    3.9030    0.0000 C.3     2  UNL2        0.0841
      9 H           2.6675    4.8779    0.0000 H       2  UNL2        0.0837
     10 H           1.8705    4.8779    0.0000 H       2  UNL2        0.0837
     11 H           0.2269    3.9399    0.0000 H       2  UNL2        0.0778
     12 H           0.0000    3.0930    0.0000 H       2  UNL2        0.0778
     13 H           0.8469    2.8660    0.0000 H       2  UNL2        0.0778
     14 H           1.4399    5.0790    0.0000 H       2  UNL2        0.0778
     15 H           0.5930    5.3059    0.0000 H       2  UNL2        0.0778
     16 H           0.3660    4.4590    0.0000 H       2  UNL2        0.0778
     17 H           1.3660    2.7269    0.0000 H       2  UNL2        0.0778
     18 H           2.2130    2.5000    0.0000 H       2  UNL2        0.0778
     19 H           2.4399    3.3469    0.0000 H       2  UNL2        0.0778
     20 H           2.7365    3.4280    0.0000 H       2  UNL2        0.0610
     21 H           3.5335    3.4280    0.0000 H       2  UNL2        0.0610
     22 H           4.5380    4.0930    0.0000 H       2  UNL2        0.2096
@<TRIPOS>UNITY_ATOM_ATTR
1 1
charge -1
3 1
charge 1
@<TRIPOS>BOND
     1     2     8    1
     2     2    22    1
     3     3     4    1
     4     3     5    1
     5     3     6    1
     6     3     7    1
     7     4     8    1
     8     4     9    1
     9     4    10    1
    10     5    11    1
    11     5    12    1
    12     5    13    1
    13     6    14    1
    14     6    15    1
    15     6    16    1
    16     7    17    1
    17     7    18    1
    18     7    19    1
    19     8    20    1
    20     8    21    1
