@<TRIPOS>MOLECULE
IMPHY006009
 22 21 0 0 0
SMALL
GASTEIGER

@<TRIPOS>ATOM
      1 O           5.4641    0.7500    0.0000 O.3     1  UNL1       -0.3519
      2 O           3.7320    0.7500    0.0000 O.3     1  UNL1       -0.3519
      3 C           4.5981    0.2500    0.0000 C.3     1  UNL1        0.1563
      4 C           4.5981   -0.7500    0.0000 C.3     1  UNL1       -0.0136
      5 C           6.3301    0.2500    0.0000 C.3     1  UNL1        0.0478
      6 C           2.8660    0.2500    0.0000 C.3     1  UNL1        0.0478
      7 C           7.1962    0.7500    0.0000 C.3     1  UNL1       -0.0415
      8 C           2.0000    0.7500    0.0000 C.3     1  UNL1       -0.0415
      9 H           4.5981    0.8700    0.0000 H       1  UNL1        0.0906
     10 H           3.9781   -0.7500    0.0000 H       1  UNL1        0.0278
     11 H           4.5981   -1.3700    0.0000 H       1  UNL1        0.0278
     12 H           5.2181   -0.7500    0.0000 H       1  UNL1        0.0278
     13 H           5.9316   -0.2249    0.0000 H       1  UNL1        0.0558
     14 H           6.7287   -0.2249    0.0000 H       1  UNL1        0.0558
     15 H           2.4675   -0.2249    0.0000 H       1  UNL1        0.0558
     16 H           3.2646   -0.2249    0.0000 H       1  UNL1        0.0558
     17 H           7.5062    0.2131    0.0000 H       1  UNL1        0.0252
     18 H           7.7331    1.0600    0.0000 H       1  UNL1        0.0252
     19 H           6.8862    1.2869    0.0000 H       1  UNL1        0.0252
     20 H           2.3100    1.2869    0.0000 H       1  UNL1        0.0252
     21 H           1.4631    1.0600    0.0000 H       1  UNL1        0.0252
     22 H           1.6900    0.2131    0.0000 H       1  UNL1        0.0252
@<TRIPOS>BOND
     1     1     3    1
     2     1     5    1
     3     2     3    1
     4     2     6    1
     5     3     4    1
     6     3     9    1
     7     4    10    1
     8     4    11    1
     9     4    12    1
    10     5     7    1
    11     5    13    1
    12     5    14    1
    13     6     8    1
    14     6    15    1
    15     6    16    1
    16     7    17    1
    17     7    18    1
    18     7    19    1
    19     8    20    1
    20     8    21    1
    21     8    22    1
