@<TRIPOS>MOLECULE
IMPHY007452
 46 49 0 0 0
SMALL
GASTEIGER

@<TRIPOS>ATOM
      1 O           6.3580   -1.0209    0.0000 O.2     1  UNL1       -0.4507
      2 O           4.5981    2.0137    0.0000 O.3     1  UNL1       -0.4905
      3 O           4.5981   -1.9863    0.0000 O.3     1  UNL1       -0.4884
      4 O          10.8076   -0.7160    0.0000 O.3     1  UNL1       -0.4526
      5 O          10.8014   -2.3255    0.0000 O.3     1  UNL1       -0.4526
      6 O           2.8660    1.0137    0.0000 O.3     1  UNL1       -0.4884
      7 O           2.8660   -0.9863    0.0000 O.3     1  UNL1       -0.4883
      8 O           6.3465    2.0483    0.0000 O.2     1  UNL1       -0.2869
      9 C           5.4641    0.5137    0.0000 C.ar    1  UNL1        0.1130
     10 C           5.4641   -0.4863    0.0000 C.ar    1  UNL1        0.1881
     11 C           7.2641   -0.5071    0.0000 C.ar    1  UNL1        0.1395
     12 C           4.5981    1.0137    0.0000 C.ar    1  UNL1        0.1798
     13 C           4.5981   -0.9863    0.0000 C.ar    1  UNL1        0.2088
     14 C           8.1282   -1.0104    0.0000 C.ar    1  UNL1        0.0211
     15 C           6.3580    1.0484    0.0000 C.ar    1  UNL1        0.1969
     16 C           3.7320    0.5137    0.0000 C.ar    1  UNL1        0.2082
     17 C           3.7320   -0.4863    0.0000 C.ar    1  UNL1        0.2110
     18 C           7.2641    0.5346    0.0000 C.ar    1  UNL1        0.0288
     19 C           8.9962   -0.5138    0.0000 C.ar    1  UNL1       -0.0055
     20 C           9.8602   -1.0171    0.0000 C.ar    1  UNL1        0.1669
     21 C           9.8564   -2.0171    0.0000 C.ar    1  UNL1        0.1663
     22 C           8.1244   -2.0104    0.0000 C.ar    1  UNL1       -0.0474
     23 C           8.9884   -2.5137    0.0000 C.ar    1  UNL1       -0.0155
     24 C          11.3881   -1.5230    0.0000 C.3     1  UNL1        0.2332
     25 C           3.7320    2.5137    0.0000 C.3     1  UNL1        0.0790
     26 C           3.7320   -2.4863    0.0000 C.3     1  UNL1        0.0791
     27 C           2.0000    0.5137    0.0000 C.3     1  UNL1        0.0791
     28 C           2.0000   -0.4863    0.0000 C.3     1  UNL1        0.0791
     29 H           7.7998    0.8466    0.0000 H       1  UNL1        0.0693
     30 H           8.9985    0.1062    0.0000 H       1  UNL1        0.0662
     31 H           7.5862   -2.3183    0.0000 H       1  UNL1        0.0626
     32 H           8.9860   -3.1337    0.0000 H       1  UNL1        0.0655
     33 H          11.8474   -1.9395    0.0000 H       1  UNL1        0.1166
     34 H          11.8506   -1.1100    0.0000 H       1  UNL1        0.1166
     35 H           4.0420    3.0507    0.0000 H       1  UNL1        0.0660
     36 H           3.1951    2.8237    0.0000 H       1  UNL1        0.0660
     37 H           3.4220    1.9768    0.0000 H       1  UNL1        0.0660
     38 H           3.4220   -1.9493    0.0000 H       1  UNL1        0.0660
     39 H           3.1951   -2.7963    0.0000 H       1  UNL1        0.0660
     40 H           4.0420   -3.0232    0.0000 H       1  UNL1        0.0660
     41 H           1.6900    1.0507    0.0000 H       1  UNL1        0.0660
     42 H           1.4631    0.2037    0.0000 H       1  UNL1        0.0660
     43 H           2.3100   -0.0232    0.0000 H       1  UNL1        0.0660
     44 H           2.3100    0.0507    0.0000 H       1  UNL1        0.0660
     45 H           1.4631   -0.1763    0.0000 H       1  UNL1        0.0660
     46 H           1.6900   -1.0232    0.0000 H       1  UNL1        0.0660
@<TRIPOS>BOND
     1     1    10   ar
     2     1    11   ar
     3     2    12    1
     4     2    25    1
     5     3    13    1
     6     3    26    1
     7     4    20    1
     8     4    24    1
     9     5    21    1
    10     5    24    1
    11     6    16    1
    12     6    27    1
    13     7    17    1
    14     7    28    1
    15     8    15    2
    16     9    10   ar
    17     9    12   ar
    18     9    15   ar
    19    10    13   ar
    20    11    14    1
    21    11    18   ar
    22    12    16   ar
    23    13    17   ar
    24    14    19   ar
    25    14    22   ar
    26    15    18   ar
    27    16    17   ar
    28    18    29    1
    29    19    20   ar
    30    19    30    1
    31    20    21   ar
    32    21    23   ar
    33    22    23   ar
    34    22    31    1
    35    23    32    1
    36    24    33    1
    37    24    34    1
    38    25    35    1
    39    25    36    1
    40    25    37    1
    41    26    38    1
    42    26    39    1
    43    26    40    1
    44    27    41    1
    45    27    42    1
    46    27    43    1
    47    28    44    1
    48    28    45    1
    49    28    46    1
