@<TRIPOS>MOLECULE
IMPHY001313
 56 58 0 0 0
SMALL
GASTEIGER

@<TRIPOS>ATOM
      1 O           4.5981    1.5000    0.0000 O.2     1  UNL1       -0.2706
      2 O          16.8026    0.3047    0.0000 O.3     1  UNL1       -0.4526
      3 O          16.8026   -1.3047    0.0000 O.3     1  UNL1       -0.4526
      4 N           3.7320    0.0000    0.0000 N.am    1  UNL1       -0.2980
      5 C           2.0000   -1.0000    0.0000 C.3     1  UNL1       -0.0502
      6 C           2.0000    0.0000    0.0000 C.3     1  UNL1       -0.0371
      7 C           2.8660   -1.5000    0.0000 C.3     1  UNL1       -0.0371
      8 C           2.8660    0.5000    0.0000 C.3     1  UNL1        0.0150
      9 C           3.7320   -1.0000    0.0000 C.3     1  UNL1        0.0150
     10 C           4.5981    0.5000    0.0000 C.2     1  UNL1        0.2394
     11 C           5.4641    0.0000    0.0000 C.2     1  UNL1        0.0003
     12 C           9.7942    0.5000    0.0000 C.3     1  UNL1       -0.0493
     13 C          10.6603    0.0000    0.0000 C.3     1  UNL1       -0.0493
     14 C           8.9282    0.0000    0.0000 C.3     1  UNL1       -0.0345
     15 C          11.5263    0.5000    0.0000 C.3     1  UNL1       -0.0344
     16 C           6.3301    0.5000    0.0000 C.2     1  UNL1       -0.0571
     17 C           8.0622    0.5000    0.0000 C.2     1  UNL1       -0.0840
     18 C           7.1962    0.0000    0.0000 C.2     1  UNL1       -0.0655
     19 C          12.3923    0.0000    0.0000 C.2     1  UNL1       -0.0835
     20 C          14.1244    0.0000    0.0000 C.ar    1  UNL1       -0.0216
     21 C          13.2583    0.5000    0.0000 C.2     1  UNL1       -0.0584
     22 C          15.8564    0.0000    0.0000 C.ar    1  UNL1        0.1668
     23 C          14.9904    0.5000    0.0000 C.ar    1  UNL1       -0.0090
     24 C          15.8564   -1.0000    0.0000 C.ar    1  UNL1        0.1663
     25 C          14.1244   -1.0000    0.0000 C.ar    1  UNL1       -0.0509
     26 C          14.9904   -1.5000    0.0000 C.ar    1  UNL1       -0.0156
     27 C          17.3862   -0.5000    0.0000 C.3     1  UNL1        0.2332
     28 H           1.3894   -0.8923    0.0000 H       1  UNL1        0.0266
     29 H           1.7880   -1.5826    0.0000 H       1  UNL1        0.0266
     30 H           2.4675   -1.9750    0.0000 H       1  UNL1        0.0280
     31 H           3.2646   -1.9750    0.0000 H       1  UNL1        0.0280
     32 H           1.7880    0.5826    0.0000 H       1  UNL1        0.0280
     33 H           1.3894   -0.1077    0.0000 H       1  UNL1        0.0280
     34 H           3.9441   -1.5826    0.0000 H       1  UNL1        0.0464
     35 H           4.3426   -0.8923    0.0000 H       1  UNL1        0.0464
     36 H           3.2646    0.9749    0.0000 H       1  UNL1        0.0464
     37 H           2.4675    0.9749    0.0000 H       1  UNL1        0.0464
     38 H           5.4641   -0.6200    0.0000 H       1  UNL1        0.0669
     39 H          10.1928    0.9749    0.0000 H       1  UNL1        0.0268
     40 H           9.3957    0.9749    0.0000 H       1  UNL1        0.0268
     41 H          10.2617   -0.4749    0.0000 H       1  UNL1        0.0268
     42 H          11.0588   -0.4749    0.0000 H       1  UNL1        0.0268
     43 H           8.5297   -0.4749    0.0000 H       1  UNL1        0.0307
     44 H           9.3267   -0.4749    0.0000 H       1  UNL1        0.0307
     45 H          11.9248    0.9749    0.0000 H       1  UNL1        0.0307
     46 H          11.1278    0.9749    0.0000 H       1  UNL1        0.0307
     47 H           6.3301    1.1200    0.0000 H       1  UNL1        0.0619
     48 H           8.0622    1.1200    0.0000 H       1  UNL1        0.0572
     49 H           7.1962   -0.6200    0.0000 H       1  UNL1        0.0614
     50 H          12.3923   -0.6200    0.0000 H       1  UNL1        0.0572
     51 H          13.2583    1.1200    0.0000 H       1  UNL1        0.0620
     52 H          14.9904    1.1200    0.0000 H       1  UNL1        0.0661
     53 H          13.5874   -1.3100    0.0000 H       1  UNL1        0.0625
     54 H          14.9904   -2.1200    0.0000 H       1  UNL1        0.0655
     55 H          17.8471   -0.9147    0.0000 H       1  UNL1        0.1166
     56 H          17.8471   -0.0853    0.0000 H       1  UNL1        0.1166
@<TRIPOS>BOND
     1     1    10    2
     2     2    22    1
     3     2    27    1
     4     3    24    1
     5     3    27    1
     6     4     8    1
     7     4     9    1
     8     4    10   am
     9     5     6    1
    10     5     7    1
    11     5    28    1
    12     5    29    1
    13     6     8    1
    14     6    32    1
    15     6    33    1
    16     7     9    1
    17     7    30    1
    18     7    31    1
    19     8    36    1
    20     8    37    1
    21     9    34    1
    22     9    35    1
    23    10    11    1
    24    11    16    2
    25    11    38    1
    26    12    13    1
    27    12    14    1
    28    12    39    1
    29    12    40    1
    30    13    15    1
    31    13    41    1
    32    13    42    1
    33    14    17    1
    34    14    43    1
    35    14    44    1
    36    15    19    1
    37    15    45    1
    38    15    46    1
    39    16    18    1
    40    16    47    1
    41    17    18    2
    42    17    48    1
    43    18    49    1
    44    19    21    2
    45    19    50    1
    46    20    21    1
    47    20    23   ar
    48    20    25   ar
    49    21    51    1
    50    22    23   ar
    51    22    24   ar
    52    23    52    1
    53    24    26   ar
    54    25    26   ar
    55    25    53    1
    56    26    54    1
    57    27    55    1
    58    27    56    1
