@<TRIPOS>MOLECULE
IMPHY011351
 27 28 0 0 0
SMALL
GASTEIGER

@<TRIPOS>ATOM
      1 O           2.8954   -3.2762    0.0000 O.3     1  UNL1       -0.3360
      2 O           2.8954   -2.1006    0.0000 O.2     1  UNL1       -0.4568
      3 C           3.7044   -2.6884    0.0000 C.3     1  UNL1        0.2328
      4 C           4.5134   -3.2762    0.0000 C.3     1  UNL1        0.0191
      5 C           4.2044   -4.2272    0.0000 C.3     1  UNL1       -0.0230
      6 C           3.2044   -4.2272    0.0000 C.3     1  UNL1        0.0525
      7 C           4.5134   -2.1006    0.0000 C.2     1  UNL1       -0.0098
      8 C           4.2044   -1.1495    0.0000 C.2     1  UNL1       -0.0170
      9 C           3.2044   -1.1495    0.0000 C.2     1  UNL1        0.1326
     10 C           2.6166   -0.3405    0.0000 C.2     1  UNL1        0.0312
     11 C           3.0233    0.5730    0.0000 C.1     1  UNL1       -0.0567
     12 C           3.4301    1.4866    0.0000 C.1     1  UNL1       -0.0100
     13 C           3.8368    2.4001    0.0000 C.1     1  UNL1       -0.0148
     14 C           4.2436    3.3137    0.0000 C.1     1  UNL1       -0.0918
     15 C           4.6503    4.2272    0.0000 C.3     1  UNL1       -0.0016
     16 H           5.0798   -3.5283    0.0000 H       1  UNL1        0.0333
     17 H           4.8234   -2.7392    0.0000 H       1  UNL1        0.0333
     18 H           4.1396   -4.8438    0.0000 H       1  UNL1        0.0289
     19 H           4.8108   -4.3561    0.0000 H       1  UNL1        0.0289
     20 H           2.5979   -4.3561    0.0000 H       1  UNL1        0.0561
     21 H           3.2692   -4.8438    0.0000 H       1  UNL1        0.0561
     22 H           5.1031   -2.2922    0.0000 H       1  UNL1        0.0638
     23 H           4.5688   -0.6479    0.0000 H       1  UNL1        0.0653
     24 H           2.0000   -0.4053    0.0000 H       1  UNL1        0.0749
     25 H           5.2167    3.9750    0.0000 H       1  UNL1        0.0362
     26 H           4.9025    4.7936    0.0000 H       1  UNL1        0.0362
     27 H           4.0839    4.4794    0.0000 H       1  UNL1        0.0362
@<TRIPOS>BOND
     1     1     3    1
     2     1     6    1
     3     2     3    1
     4     2     9    1
     5     3     4    1
     6     3     7    1
     7     4     5    1
     8     4    16    1
     9     4    17    1
    10     5     6    1
    11     5    18    1
    12     5    19    1
    13     6    20    1
    14     6    21    1
    15     7     8    2
    16     7    22    1
    17     8     9    1
    18     8    23    1
    19     9    10    2
    20    10    11    1
    21    10    24    1
    22    11    12    3
    23    12    13    1
    24    13    14    3
    25    14    15    1
    26    15    25    1
    27    15    26    1
    28    15    27    1
