@<TRIPOS>MOLECULE
IMPHY002427
 64 68 0 0 0
SMALL
GASTEIGER

@<TRIPOS>ATOM
      1 O           9.0529    3.1914    0.0000 O.3     1  UNL1       -0.3120
      2 N           9.0503    2.1914    0.0000 N.3     1  UNL1       -0.1873
      3 N           2.8641   -2.5000    0.0000 N.3     1  UNL1       -0.3051
      4 C           8.2572    0.5523    0.0000 C.3     1  UNL1       -0.0069
      5 C           8.2572   -0.4477    0.0000 C.3     1  UNL1       -0.0304
      6 C           9.2034    0.8571    0.0000 C.3     1  UNL1       -0.0163
      7 C           7.3912   -0.9477    0.0000 C.3     1  UNL1       -0.0306
      8 C           6.5251   -0.4477    0.0000 C.3     1  UNL1       -0.0285
      9 C           7.3912    1.0523    0.0000 C.3     1  UNL1       -0.0453
     10 C           9.2034   -0.7524    0.0000 C.3     1  UNL1       -0.0491
     11 C           9.7870    0.0523    0.0000 C.3     1  UNL1       -0.0479
     12 C           8.1590    1.5356    0.0000 C.3     1  UNL1        0.0308
     13 C           6.5251    0.5523    0.0000 C.3     1  UNL1       -0.0486
     14 C           5.6151   -0.9545    0.0000 C.3     1  UNL1       -0.0079
     15 C           9.6975    1.7128    0.0000 C.3     1  UNL1        0.0362
     16 C           7.4072   -1.9892    0.0000 C.3     1  UNL1       -0.0311
     17 C           5.6071   -1.9961    0.0000 C.2     1  UNL1       -0.0658
     18 C           4.6883   -0.3904    0.0000 C.3     1  UNL1       -0.0422
     19 C           6.5092   -2.5169    0.0000 C.2     1  UNL1       -0.0839
     20 C           5.6228    0.0454    0.0000 C.3     1  UNL1       -0.0556
     21 C          10.6488    2.0210    0.0000 C.3     1  UNL1       -0.0470
     22 C           4.6717   -2.5458    0.0000 C.3     1  UNL1       -0.0156
     23 C           3.7404   -0.9184    0.0000 C.3     1  UNL1       -0.0363
     24 C           3.7320   -2.0034    0.0000 C.3     1  UNL1        0.0135
     25 C           2.0000   -1.9967    0.0000 C.3     1  UNL1       -0.0128
     26 C           2.8602   -3.5000    0.0000 C.3     1  UNL1       -0.0128
     27 H           8.3471   -1.2929    0.0000 H       1  UNL1        0.0309
     28 H          10.0522    0.9012    0.0000 H       1  UNL1        0.0322
     29 H           8.1305   -1.3670    0.0000 H       1  UNL1        0.0309
     30 H           7.2612   -0.0227    0.0000 H       1  UNL1        0.0312
     31 H           7.7897    1.5273    0.0000 H       1  UNL1        0.0271
     32 H           6.9926    1.5273    0.0000 H       1  UNL1        0.0271
     33 H           8.9524   -1.3193    0.0000 H       1  UNL1        0.0268
     34 H           9.7408   -1.0616    0.0000 H       1  UNL1        0.0268
     35 H          10.2479   -0.3624    0.0000 H       1  UNL1        0.0269
     36 H          10.2479    0.4670    0.0000 H       1  UNL1        0.0269
     37 H           7.8859    2.0923    0.0000 H       1  UNL1        0.0456
     38 H           7.5628    1.3656    0.0000 H       1  UNL1        0.0456
     39 H           6.3131    1.1349    0.0000 H       1  UNL1        0.0268
     40 H           5.9145    0.4447    0.0000 H       1  UNL1        0.0268
     41 H           9.7973    2.3248    0.0000 H       1  UNL1        0.0486
     42 H           7.6252   -2.5696    0.0000 H       1  UNL1        0.0310
     43 H           8.0164   -1.8737    0.0000 H       1  UNL1        0.0310
     44 H           5.0965    0.0762    0.0000 H       1  UNL1        0.0274
     45 H           4.2984    0.0916    0.0000 H       1  UNL1        0.0274
     46 H           6.5116   -3.1369    0.0000 H       1  UNL1        0.0572
     47 H           6.2428    0.0407    0.0000 H       1  UNL1        0.0238
     48 H           5.6276    0.6654    0.0000 H       1  UNL1        0.0238
     49 H           5.0028    0.0502    0.0000 H       1  UNL1        0.0238
     50 H          10.8399    1.4312    0.0000 H       1  UNL1        0.0246
     51 H          11.2386    2.2121    0.0000 H       1  UNL1        0.0246
     52 H          10.4577    2.6109    0.0000 H       1  UNL1        0.0246
     53 H           4.2744   -3.0218    0.0000 H       1  UNL1        0.0325
     54 H           5.0726   -3.0187    0.0000 H       1  UNL1        0.0325
     55 H           3.5358   -0.3331    0.0000 H       1  UNL1        0.0281
     56 H           3.1288   -1.0198    0.0000 H       1  UNL1        0.0281
     57 H           3.7308   -2.6234    0.0000 H       1  UNL1        0.0465
     58 H           9.5907    3.5000    0.0000 H       1  UNL1        0.2366
     59 H           2.3121   -1.4609    0.0000 H       1  UNL1        0.0391
     60 H           1.4643   -1.6846    0.0000 H       1  UNL1        0.0391
     61 H           1.6879   -2.5324    0.0000 H       1  UNL1        0.0391
     62 H           2.2402   -3.4976    0.0000 H       1  UNL1        0.0391
     63 H           2.8578   -4.1200    0.0000 H       1  UNL1        0.0391
     64 H           3.4802   -3.5024    0.0000 H       1  UNL1        0.0391
@<TRIPOS>BOND
     1     1     2    1
     2     1    58    1
     3     2    12    1
     4     2    15    1
     5    24     3    1
     6     3    25    1
     7     3    26    1
     8     4     5    1
     9     4     6    1
    10     4     9    1
    11     4    12    1
    12     5     7    1
    13     5    10    1
    14     5    27    1
    15     6    11    1
    16     6    15    1
    17     6    28    1
    18     7     8    1
    19     7    16    1
    20     7    29    1
    21     8    13    1
    22     8    14    1
    23     8    30    1
    24     9    13    1
    25     9    31    1
    26     9    32    1
    27    10    11    1
    28    10    33    1
    29    10    34    1
    30    11    35    1
    31    11    36    1
    32    12    37    1
    33    12    38    1
    34    13    39    1
    35    13    40    1
    36    14    17    1
    37    14    18    1
    38    14    20    1
    39    15    21    1
    40    15    41    1
    41    16    19    1
    42    16    42    1
    43    16    43    1
    44    17    19    2
    45    17    22    1
    46    18    23    1
    47    18    44    1
    48    18    45    1
    49    19    46    1
    50    20    47    1
    51    20    48    1
    52    20    49    1
    53    21    50    1
    54    21    51    1
    55    21    52    1
    56    22    24    1
    57    22    53    1
    58    22    54    1
    59    23    24    1
    60    23    55    1
    61    23    56    1
    62    24    57    1
    63    25    59    1
    64    25    60    1
    65    25    61    1
    66    26    62    1
    67    26    63    1
    68    26    64    1
