@<TRIPOS>MOLECULE
IMPHY003698
 47 52 0 0 0
SMALL
GASTEIGER

@<TRIPOS>ATOM
      1 O           9.1103    1.0119    0.0000 O.3     1  UNL1       -0.3609
      2 O           5.7672    3.0766    0.0000 O.3     1  UNL1       -0.4562
      3 O           7.2626    3.1939    0.0000 O.3     1  UNL1       -0.3749
      4 O           3.3552   -1.8104    0.0000 O.3     1  UNL1       -0.4532
      5 O           6.8920    4.5426    0.0000 O.2     1  UNL1       -0.2475
      6 O           2.0000   -0.6134    0.0000 O.2     1  UNL1       -0.2453
      7 O           5.7888   -4.1897    0.0000 O.2     1  UNL1       -0.4706
      8 C           5.0302    1.6098    0.0000 C.3     1  UNL1        0.0203
      9 C           5.3723    0.6701    0.0000 C.3     1  UNL1        0.0173
     10 C           7.0038    2.2280    0.0000 C.3     1  UNL1        0.1970
     11 C           8.4027    1.7192    0.0000 C.3     1  UNL1        0.1284
     12 C           8.1439    0.7533    0.0000 C.3     1  UNL1        0.1257
     13 C           6.7450    1.2621    0.0000 C.3     1  UNL1        0.1359
     14 C           4.7151   -0.1381    0.0000 C.3     1  UNL1        0.0099
     15 C           4.0074    1.8064    0.0000 C.3     1  UNL1       -0.0249
     16 C           6.6332    3.5766    0.0000 C.2     1  UNL1        0.3428
     17 C           4.6882    2.5495    0.0000 C.3     1  UNL1       -0.0556
     18 C           3.6879    0.0349    0.0000 C.2     1  UNL1        0.0391
     19 C           5.1097   -1.1488    0.0000 C.3     1  UNL1       -0.0013
     20 C           3.3317    1.0137    0.0000 C.2     1  UNL1       -0.0729
     21 C           5.5850   -0.6314    0.0000 C.3     1  UNL1       -0.0548
     22 C           4.4252   -1.9906    0.0000 C.3     1  UNL1        0.1321
     23 C           2.9841   -0.7909    0.0000 C.2     1  UNL1        0.3360
     24 C           4.7780   -2.9263    0.0000 C.ar    1  UNL1        0.0304
     25 C           4.2284   -3.7617    0.0000 C.ar    1  UNL1       -0.0172
     26 C           5.7424   -3.1908    0.0000 C.ar    1  UNL1        0.0983
     27 C           4.8532   -4.5426    0.0000 C.ar    1  UNL1        0.0921
     28 H           5.9186    0.0189    0.0000 H       1  UNL1        0.0352
     29 H           8.5632    2.3181    0.0000 H       1  UNL1        0.0658
     30 H           7.9834    0.1544    0.0000 H       1  UNL1        0.0660
     31 H           6.5250    0.4410    0.0000 H       1  UNL1        0.0764
     32 H           4.2269    2.3863    0.0000 H       1  UNL1        0.0314
     33 H           3.4736    2.1219    0.0000 H       1  UNL1        0.0314
     34 H           5.2708    2.7615    0.0000 H       1  UNL1        0.0236
     35 H           4.4762    3.1321    0.0000 H       1  UNL1        0.0236
     36 H           4.1056    2.3374    0.0000 H       1  UNL1        0.0236
     37 H           5.5167   -1.6165    0.0000 H       1  UNL1        0.0313
     38 H           5.6401   -0.8278    0.0000 H       1  UNL1        0.0313
     39 H           2.7215    1.1237    0.0000 H       1  UNL1        0.0577
     40 H           5.2791   -1.1707    0.0000 H       1  UNL1        0.0238
     41 H           6.1243   -0.9373    0.0000 H       1  UNL1        0.0238
     42 H           5.8908   -0.0921    0.0000 H       1  UNL1        0.0238
     43 H           7.8615    3.3544    0.0000 H       1  UNL1        0.2110
     44 H           4.0312   -2.4694    0.0000 H       1  UNL1        0.0786
     45 H           3.6091   -3.7905    0.0000 H       1  UNL1        0.0653
     46 H           6.2265   -2.8035    0.0000 H       1  UNL1        0.1033
     47 H           4.6892   -5.1405    0.0000 H       1  UNL1        0.1029
@<TRIPOS>BOND
     1    11     1    1
     2    12     1    1
     3     2    13    1
     4     2    16    1
     5    10     3    1
     6     3    43    1
     7     4    22    1
     8     4    23    1
     9     5    16    2
    10     6    23    2
    11     7    26   ar
    12     7    27   ar
    13     8     9    1
    14     8    10    1
    15     8    15    1
    16     8    17    1
    17     9    13    1
    18     9    14    1
    19     9    28    1
    20    10    11    1
    21    10    16    1
    22    11    12    1
    23    11    29    1
    24    12    13    1
    25    12    30    1
    26    13    31    1
    27    14    18    1
    28    14    19    1
    29    14    21    1
    30    15    20    1
    31    15    32    1
    32    15    33    1
    33    17    34    1
    34    17    35    1
    35    17    36    1
    36    18    20    2
    37    18    23    1
    38    19    22    1
    39    19    37    1
    40    19    38    1
    41    20    39    1
    42    21    40    1
    43    21    41    1
    44    21    42    1
    45    22    24    1
    46    22    44    1
    47    24    25   ar
    48    24    26   ar
    49    25    27   ar
    50    25    45    1
    51    26    46    1
    52    27    47    1
