@<TRIPOS>MOLECULE
IMPHY016878
 58 57 0 0 0
SMALL
GASTEIGER

@<TRIPOS>ATOM
      1 O           3.7320    5.6900    0.0000 O.3     1  UNL1       -0.4607
      2 O           2.8660    4.1900    0.0000 O.2     1  UNL1       -0.2512
      3 C           8.9282    0.6900    0.0000 C.3     1  UNL1       -0.0531
      4 C           8.9282   -0.3100    0.0000 C.3     1  UNL1       -0.0531
      5 C           8.0622    1.1900    0.0000 C.3     1  UNL1       -0.0531
      6 C           9.7942   -0.8100    0.0000 C.3     1  UNL1       -0.0530
      7 C           8.0622    2.1900    0.0000 C.3     1  UNL1       -0.0530
      8 C           9.7942   -1.8100    0.0000 C.3     1  UNL1       -0.0528
      9 C           7.1962    2.6900    0.0000 C.3     1  UNL1       -0.0528
     10 C          10.6603   -2.3100    0.0000 C.3     1  UNL1       -0.0496
     11 C           7.1962    3.6900    0.0000 C.3     1  UNL1       -0.0496
     12 C          10.6603   -3.3100    0.0000 C.3     1  UNL1       -0.0348
     13 C           6.3301    4.1900    0.0000 C.3     1  UNL1       -0.0347
     14 C          11.5263   -3.8100    0.0000 C.2     1  UNL1       -0.0879
     15 C           6.3301    5.1900    0.0000 C.2     1  UNL1       -0.0848
     16 C          11.5263   -4.8100    0.0000 C.2     1  UNL1       -0.0882
     17 C           5.4641    5.6900    0.0000 C.2     1  UNL1       -0.0510
     18 C          10.6603   -5.3100    0.0000 C.3     1  UNL1       -0.0376
     19 C           4.5981    5.1900    0.0000 C.3     1  UNL1        0.1107
     20 C          10.6603   -6.3100    0.0000 C.3     1  UNL1       -0.0618
     21 C           2.8660    5.1900    0.0000 C.2     1  UNL1        0.3042
     22 C           2.0000    5.6900    0.0000 C.3     1  UNL1        0.0332
     23 H           9.5388    0.5823    0.0000 H       1  UNL1        0.0265
     24 H           9.1403    1.2726    0.0000 H       1  UNL1        0.0265
     25 H           8.3176   -0.2023    0.0000 H       1  UNL1        0.0265
     26 H           8.7162   -0.8926    0.0000 H       1  UNL1        0.0265
     27 H           7.4516    1.2977    0.0000 H       1  UNL1        0.0265
     28 H           7.8501    0.6074    0.0000 H       1  UNL1        0.0265
     29 H          10.4048   -0.9177    0.0000 H       1  UNL1        0.0265
     30 H          10.0063   -0.2274    0.0000 H       1  UNL1        0.0265
     31 H           8.6728    2.0823    0.0000 H       1  UNL1        0.0265
     32 H           8.2742    2.7726    0.0000 H       1  UNL1        0.0265
     33 H           9.1836   -1.7023    0.0000 H       1  UNL1        0.0265
     34 H           9.5822   -2.3926    0.0000 H       1  UNL1        0.0265
     35 H           6.5856    2.7977    0.0000 H       1  UNL1        0.0265
     36 H           6.9841    2.1074    0.0000 H       1  UNL1        0.0265
     37 H          11.2708   -2.4177    0.0000 H       1  UNL1        0.0268
     38 H          10.8723   -1.7274    0.0000 H       1  UNL1        0.0268
     39 H           7.8067    3.5823    0.0000 H       1  UNL1        0.0268
     40 H           7.4082    4.2726    0.0000 H       1  UNL1        0.0268
     41 H          10.0497   -3.2023    0.0000 H       1  UNL1        0.0307
     42 H          10.4482   -3.8926    0.0000 H       1  UNL1        0.0307
     43 H           5.7196    4.2977    0.0000 H       1  UNL1        0.0307
     44 H           6.1181    3.6074    0.0000 H       1  UNL1        0.0307
     45 H          12.0632   -3.5000    0.0000 H       1  UNL1        0.0569
     46 H           6.8671    5.5000    0.0000 H       1  UNL1        0.0570
     47 H          12.0632   -5.1200    0.0000 H       1  UNL1        0.0569
     48 H           5.4641    6.3100    0.0000 H       1  UNL1        0.0602
     49 H          10.4482   -4.7274    0.0000 H       1  UNL1        0.0305
     50 H          10.0497   -5.4177    0.0000 H       1  UNL1        0.0305
     51 H           4.1996    4.7150    0.0000 H       1  UNL1        0.0743
     52 H           4.9966    4.7150    0.0000 H       1  UNL1        0.0743
     53 H          10.0403   -6.3100    0.0000 H       1  UNL1        0.0233
     54 H          10.6603   -6.9300    0.0000 H       1  UNL1        0.0233
     55 H          11.2803   -6.3100    0.0000 H       1  UNL1        0.0233
     56 H           2.3100    6.2269    0.0000 H       1  UNL1        0.0342
     57 H           1.4631    6.0000    0.0000 H       1  UNL1        0.0342
     58 H           1.6900    5.1531    0.0000 H       1  UNL1        0.0342
@<TRIPOS>BOND
     1     1    19    1
     2     1    21    1
     3     2    21    2
     4     3     4    1
     5     3     5    1
     6     3    23    1
     7     3    24    1
     8     4     6    1
     9     4    25    1
    10     4    26    1
    11     5     7    1
    12     5    27    1
    13     5    28    1
    14     6     8    1
    15     6    29    1
    16     6    30    1
    17     7     9    1
    18     7    31    1
    19     7    32    1
    20     8    10    1
    21     8    33    1
    22     8    34    1
    23     9    11    1
    24     9    35    1
    25     9    36    1
    26    10    12    1
    27    10    37    1
    28    10    38    1
    29    11    13    1
    30    11    39    1
    31    11    40    1
    32    12    14    1
    33    12    41    1
    34    12    42    1
    35    13    15    1
    36    13    43    1
    37    13    44    1
    38    14    16    2
    39    14    45    1
    40    15    17    2
    41    15    46    1
    42    16    18    1
    43    16    47    1
    44    17    19    1
    45    17    48    1
    46    18    20    1
    47    18    49    1
    48    18    50    1
    49    19    51    1
    50    19    52    1
    51    20    53    1
    52    20    54    1
    53    20    55    1
    54    21    22    1
    55    22    56    1
    56    22    57    1
    57    22    58    1
