@<TRIPOS>MOLECULE
IMPHY011564
 42 42 0 0 0
SMALL
GASTEIGER

@<TRIPOS>ATOM
      1 O           2.7338    2.0767    0.0000 O.3     1  UNL1       -0.3848
      2 C           5.1350    0.3336    0.0000 C.3     1  UNL1       -0.0202
      3 C           6.0010   -0.1664    0.0000 C.3     1  UNL1       -0.0404
      4 C           4.2690   -0.1664    0.0000 C.3     1  UNL1       -0.0428
      5 C           3.4030    1.3336    0.0000 C.3     1  UNL1        0.0816
      6 C           4.2690   -1.1664    0.0000 C.3     1  UNL1       -0.0315
      7 C           5.1350    1.3336    0.0000 C.2     1  UNL1       -0.0819
      8 C           3.4030    0.3336    0.0000 C.3     1  UNL1       -0.0172
      9 C           4.2690    1.8336    0.0000 C.2     1  UNL1       -0.0568
     10 C           2.5369   -0.1664    0.0000 C.3     1  UNL1       -0.0316
     11 C           3.4030   -1.6664    0.0000 C.2     1  UNL1       -0.0765
     12 C           6.8671    0.3336    0.0000 C.3     1  UNL1       -0.0621
     13 C           6.0010   -1.1664    0.0000 C.3     1  UNL1       -0.0621
     14 C           2.5369   -1.1664    0.0000 C.2     1  UNL1       -0.0849
     15 C           2.4248    1.5415    0.0000 C.3     1  UNL1       -0.0324
     16 C           3.4030   -2.6664    0.0000 C.3     1  UNL1       -0.0438
     17 H           5.1350   -0.2864    0.0000 H       1  UNL1        0.0346
     18 H           6.5380   -0.4764    0.0000 H       1  UNL1        0.0301
     19 H           4.0569    0.4162    0.0000 H       1  UNL1        0.0274
     20 H           3.6584   -0.2741    0.0000 H       1  UNL1        0.0274
     21 H           4.4810   -1.7490    0.0000 H       1  UNL1        0.0310
     22 H           4.8796   -1.0587    0.0000 H       1  UNL1        0.0310
     23 H           5.6720    1.6436    0.0000 H       1  UNL1        0.0573
     24 H           3.6150   -0.2490    0.0000 H       1  UNL1        0.0299
     25 H           4.0135    0.4413    0.0000 H       1  UNL1        0.0299
     26 H           4.2690    2.4536    0.0000 H       1  UNL1        0.0597
     27 H           2.3249    0.4162    0.0000 H       1  UNL1        0.0308
     28 H           1.9264   -0.2741    0.0000 H       1  UNL1        0.0308
     29 H           5.3810   -1.1664    0.0000 H       1  UNL1        0.0233
     30 H           6.0010   -1.7864    0.0000 H       1  UNL1        0.0233
     31 H           7.1771   -0.2033    0.0000 H       1  UNL1        0.0233
     32 H           7.4040    0.6436    0.0000 H       1  UNL1        0.0233
     33 H           6.6210   -1.1664    0.0000 H       1  UNL1        0.0233
     34 H           6.5571    0.8705    0.0000 H       1  UNL1        0.0233
     35 H           2.0000   -1.4764    0.0000 H       1  UNL1        0.0572
     36 H           2.5537    2.1480    0.0000 H       1  UNL1        0.0260
     37 H           1.8184    1.6704    0.0000 H       1  UNL1        0.0260
     38 H           2.2959    0.9351    0.0000 H       1  UNL1        0.0260
     39 H           2.7830   -2.6664    0.0000 H       1  UNL1        0.0274
     40 H           3.4030   -3.2864    0.0000 H       1  UNL1        0.0274
     41 H           4.0230   -2.6664    0.0000 H       1  UNL1        0.0274
     42 H           2.9254    2.6664    0.0000 H       1  UNL1        0.2106
@<TRIPOS>BOND
     1     5     1    1
     2     1    42    1
     3     2     3    1
     4     2     4    1
     5     2     7    1
     6     2    17    1
     7     3    12    1
     8     3    13    1
     9     3    18    1
    10     4     6    1
    11     4    19    1
    12     4    20    1
    13     5     8    1
    14     5     9    1
    15     5    15    1
    16     6    11    1
    17     6    21    1
    18     6    22    1
    19     7     9    2
    20     7    23    1
    21     8    10    1
    22     8    24    1
    23     8    25    1
    24     9    26    1
    25    10    14    1
    26    10    27    1
    27    10    28    1
    28    11    14    2
    29    11    16    1
    30    12    31    1
    31    12    32    1
    32    12    34    1
    33    13    29    1
    34    13    30    1
    35    13    33    1
    36    14    35    1
    37    15    36    1
    38    15    37    1
    39    15    38    1
    40    16    39    1
    41    16    40    1
    42    16    41    1
