@<TRIPOS>MOLECULE
IMPHY006772
 35 37 0 0 0
SMALL
GASTEIGER

@<TRIPOS>ATOM
      1 O           4.6840   -2.4324    0.0000 O.2     1  UNL1       -0.2968
      2 C           4.0984   -0.7554    0.0000 C.3     1  UNL1        0.0358
      3 C           4.5984    1.4352    0.0000 C.3     1  UNL1       -0.0313
      4 C           3.1974   -0.3215    0.0000 C.3     1  UNL1       -0.0069
      5 C           3.9916    0.4214    0.0000 C.3     1  UNL1       -0.0365
      6 C           3.5984    1.4352    0.0000 C.3     1  UNL1       -0.0110
      7 C           4.9994   -0.3215    0.0000 C.3     1  UNL1       -0.0398
      8 C           5.2219    0.6534    0.0000 C.3     1  UNL1       -0.0485
      9 C           2.9749    0.6534    0.0000 C.2     1  UNL1       -0.0667
     10 C           2.5124   -1.0418    0.0000 C.3     1  UNL1       -0.0389
     11 C           3.9624   -1.7401    0.0000 C.2     1  UNL1        0.1400
     12 C           2.9842   -1.9168    0.0000 C.3     1  UNL1        0.0070
     13 C           2.7722    1.9986    0.0000 C.3     1  UNL1       -0.0558
     14 C           3.6732    2.4324    0.0000 C.3     1  UNL1       -0.0558
     15 C           2.0000    0.8759    0.0000 C.2     1  UNL1       -0.0986
     16 H           4.7876    2.2639    0.0000 H       1  UNL1        0.0309
     17 H           2.4316    0.0473    0.0000 H       1  UNL1        0.0355
     18 H           3.5838    0.8884    0.0000 H       1  UNL1        0.0278
     19 H           3.4215    0.1775    0.0000 H       1  UNL1        0.0278
     20 H           5.1374   -0.9260    0.0000 H       1  UNL1        0.0275
     21 H           5.6194   -0.3215    0.0000 H       1  UNL1        0.0275
     22 H           5.7805    0.3844    0.0000 H       1  UNL1        0.0268
     23 H           5.6085    1.1382    0.0000 H       1  UNL1        0.0268
     24 H           2.1105   -0.5697    0.0000 H       1  UNL1        0.0275
     25 H           2.0006   -1.3918    0.0000 H       1  UNL1        0.0275
     26 H           2.4105   -2.1521    0.0000 H       1  UNL1        0.0342
     27 H           3.1579   -2.5120    0.0000 H       1  UNL1        0.0342
     28 H           3.1214    2.5108    0.0000 H       1  UNL1        0.0238
     29 H           2.2599    2.3478    0.0000 H       1  UNL1        0.0238
     30 H           2.4229    1.4863    0.0000 H       1  UNL1        0.0238
     31 H           4.2914    2.3861    0.0000 H       1  UNL1        0.0238
     32 H           3.7195    3.0507    0.0000 H       1  UNL1        0.0238
     33 H           3.0549    2.4788    0.0000 H       1  UNL1        0.0238
     34 H           1.8172    1.4684    0.0000 H       1  UNL1        0.0535
     35 H           1.5783    0.4214    0.0000 H       1  UNL1        0.0535
@<TRIPOS>BOND
     1     1    11    2
     2     2     4    1
     3     2     5    1
     4     2     7    1
     5     2    11    1
     6     3     5    1
     7     3     6    1
     8     3     8    1
     9     3    16    1
    10     4     9    1
    11     4    10    1
    12     4    17    1
    13     5    18    1
    14     5    19    1
    15     6     9    1
    16     6    13    1
    17     6    14    1
    18     7     8    1
    19     7    20    1
    20     7    21    1
    21     8    22    1
    22     8    23    1
    23     9    15    2
    24    10    12    1
    25    10    24    1
    26    10    25    1
    27    11    12    1
    28    12    26    1
    29    12    27    1
    30    13    28    1
    31    13    29    1
    32    13    30    1
    33    14    31    1
    34    14    32    1
    35    14    33    1
    36    15    34    1
    37    15    35    1
