@<TRIPOS>MOLECULE
IMPHY014989
 30 30 0 0 0
SMALL
GASTEIGER

@<TRIPOS>ATOM
      1 O           3.9680   -0.6013    0.0000 O.3     1  UNL1       -0.3636
      2 O           6.6791   -0.6316    0.0000 O.3     1  UNL1       -0.3866
      3 C           4.7770   -0.0135    0.0000 C.3     1  UNL1        0.0880
      4 C           3.1590   -0.0135    0.0000 C.3     1  UNL1        0.0851
      5 C           4.4680    0.9375    0.0000 C.3     1  UNL1       -0.0210
      6 C           3.4680    0.9375    0.0000 C.3     1  UNL1       -0.0179
      7 C           5.7281   -0.3226    0.0000 C.3     1  UNL1        0.0865
      8 C           2.5712   -0.8226    0.0000 C.3     1  UNL1       -0.0322
      9 C           6.0371    0.6285    0.0000 C.3     1  UNL1       -0.0339
     10 C           5.4190   -1.2736    0.0000 C.3     1  UNL1       -0.0339
     11 C           2.2079    0.2955    0.0000 C.2     1  UNL1       -0.0600
     12 C           2.0000    1.2736    0.0000 C.2     1  UNL1       -0.1000
     13 H           4.9100   -0.8531    0.0000 H       1  UNL1        0.0625
     14 H           5.0744    1.0664    0.0000 H       1  UNL1        0.0292
     15 H           4.4032    1.5541    0.0000 H       1  UNL1        0.0292
     16 H           3.5328    1.5541    0.0000 H       1  UNL1        0.0297
     17 H           2.8615    1.0664    0.0000 H       1  UNL1        0.0297
     18 H           2.0696   -0.4581    0.0000 H       1  UNL1        0.0260
     19 H           2.2068   -1.3242    0.0000 H       1  UNL1        0.0260
     20 H           3.0728   -1.1870    0.0000 H       1  UNL1        0.0260
     21 H           6.6267    0.4369    0.0000 H       1  UNL1        0.0258
     22 H           6.2287    1.2182    0.0000 H       1  UNL1        0.0258
     23 H           5.4474    0.8201    0.0000 H       1  UNL1        0.0258
     24 H           4.8294   -1.0820    0.0000 H       1  UNL1        0.0258
     25 H           5.2274   -1.8633    0.0000 H       1  UNL1        0.0258
     26 H           6.0087   -1.4652    0.0000 H       1  UNL1        0.0258
     27 H           1.7472   -0.1194    0.0000 H       1  UNL1        0.0594
     28 H           7.1399   -0.2167    0.0000 H       1  UNL1        0.2102
     29 H           2.4608    1.6885    0.0000 H       1  UNL1        0.0533
     30 H           1.4103    1.4652    0.0000 H       1  UNL1        0.0533
@<TRIPOS>BOND
     1     1     3    1
     2     1     4    1
     3     2     7    1
     4     2    28    1
     5     3     5    1
     6     3     7    1
     7     3    13    1
     8     4     6    1
     9     4     8    1
    10     4    11    1
    11     5     6    1
    12     5    14    1
    13     5    15    1
    14     6    16    1
    15     6    17    1
    16     7     9    1
    17     7    10    1
    18     8    18    1
    19     8    19    1
    20     8    20    1
    21     9    21    1
    22     9    22    1
    23     9    23    1
    24    10    24    1
    25    10    25    1
    26    10    26    1
    27    11    12    2
    28    11    27    1
    29    12    29    1
    30    12    30    1
