@<TRIPOS>MOLECULE
IMPHY015645
 28 28 0 0 0
SMALL
GASTEIGER

@<TRIPOS>ATOM
      1 O           2.0000   -3.2500    0.0000 O.3     1  UNL1       -0.4645
      2 O           3.7320   -3.2500    0.0000 O.2     1  UNL1       -0.2450
      3 O           4.5981    3.2500    0.0000 O.3     1  UNL1       -0.4649
      4 O           2.8660    3.2500    0.0000 O.2     1  UNL1       -0.2456
      5 C           2.8660    0.2500    0.0000 C.ar    1  UNL1       -0.0248
      6 C           2.8660   -1.7500    0.0000 C.ar    1  UNL1        0.0590
      7 C           3.7320   -0.2500    0.0000 C.ar    1  UNL1       -0.0538
      8 C           2.0000   -0.2500    0.0000 C.ar    1  UNL1       -0.0538
      9 C           3.7320   -1.2500    0.0000 C.ar    1  UNL1       -0.0472
     10 C           2.0000   -1.2500    0.0000 C.ar    1  UNL1       -0.0472
     11 C           2.8660    1.2500    0.0000 C.2     1  UNL1       -0.0478
     12 C           2.8660   -2.7500    0.0000 C.2     1  UNL1        0.3389
     13 C           3.7320    1.7500    0.0000 C.2     1  UNL1        0.0230
     14 C           3.7320    2.7500    0.0000 C.2     1  UNL1        0.3317
     15 C           2.0000   -4.2500    0.0000 C.3     1  UNL1        0.0820
     16 C           4.5981    4.2500    0.0000 C.3     1  UNL1        0.0820
     17 H           4.2690    0.0600    0.0000 H       1  UNL1        0.0624
     18 H           1.4631    0.0600    0.0000 H       1  UNL1        0.0624
     19 H           4.2690   -1.5600    0.0000 H       1  UNL1        0.0626
     20 H           1.4631   -1.5600    0.0000 H       1  UNL1        0.0626
     21 H           2.3291    1.5600    0.0000 H       1  UNL1        0.0626
     22 H           4.2690    1.4400    0.0000 H       1  UNL1        0.0689
     23 H           1.3800   -4.2500    0.0000 H       1  UNL1        0.0661
     24 H           2.0000   -4.8700    0.0000 H       1  UNL1        0.0661
     25 H           2.6200   -4.2500    0.0000 H       1  UNL1        0.0661
     26 H           5.2181    4.2500    0.0000 H       1  UNL1        0.0661
     27 H           4.5981    4.8700    0.0000 H       1  UNL1        0.0661
     28 H           3.9781    4.2500    0.0000 H       1  UNL1        0.0661
@<TRIPOS>BOND
     1     1    12    1
     2     1    15    1
     3     2    12    2
     4     3    14    1
     5     3    16    1
     6     4    14    2
     7     5     7   ar
     8     5     8   ar
     9     5    11    1
    10     6     9   ar
    11     6    10   ar
    12     6    12    1
    13     7     9   ar
    14     7    17    1
    15     8    10   ar
    16     8    18    1
    17     9    19    1
    18    10    20    1
    19    11    13    2
    20    11    21    1
    21    13    14    1
    22    13    22    1
    23    15    23    1
    24    15    24    1
    25    15    25    1
    26    16    26    1
    27    16    27    1
    28    16    28    1
