@<TRIPOS>MOLECULE
IMPHY016963
 14 14 0 0 0
SMALL
GASTEIGER

@<TRIPOS>ATOM
      1 C           2.8660   -0.3100    0.0000 C.ar    1  UNL1        0.0247
      2 C           2.0000   -0.8100    0.0000 C.ar    1  UNL1       -0.0463
      3 C           3.7320   -0.8100    0.0000 C.ar    1  UNL1       -0.0463
      4 C           2.0000   -1.8100    0.0000 C.ar    1  UNL1       -0.0606
      5 C           3.7320   -1.8100    0.0000 C.ar    1  UNL1       -0.0606
      6 C           2.8660   -2.3100    0.0000 C.ar    1  UNL1       -0.0617
      7 C           2.8660    0.6900    0.0000 C.1     1  UNL1       -0.0697
      8 C           2.8660    1.6900    0.0000 C.1     1  UNL1       -0.1139
      9 H           1.4631   -0.5000    0.0000 H       1  UNL1        0.0630
     10 H           4.2690   -0.5000    0.0000 H       1  UNL1        0.0630
     11 H           1.4631   -2.1200    0.0000 H       1  UNL1        0.0618
     12 H           4.2690   -2.1200    0.0000 H       1  UNL1        0.0618
     13 H           2.8660   -2.9300    0.0000 H       1  UNL1        0.0618
     14 H           2.8660    2.3100    0.0000 H       1  UNL1        0.1232
@<TRIPOS>BOND
     1     1     2   ar
     2     1     3   ar
     3     1     7    1
     4     2     4   ar
     5     2     9    1
     6     3     5   ar
     7     3    10    1
     8     4     6   ar
     9     4    11    1
    10     5     6   ar
    11     5    12    1
    12     6    13    1
    13     7     8    3
    14     8    14    1
