@<TRIPOS>MOLECULE
IMPHY003439
 87 90 0 0 0
SMALL
GASTEIGER

@<TRIPOS>ATOM
      1 O          10.8882    1.2766    0.0000 O.3     1  UNL1       -0.3362
      2 O          11.1972   -0.6744    0.0000 O.3     1  UNL1       -0.3125
      3 O          12.7850   -0.4834    0.0000 O.3     1  UNL1       -0.3374
      4 O           9.4651   -0.6744    0.0000 O.3     1  UNL1       -0.3404
      5 O          14.1862    0.5346    0.0000 O.3     1  UNL1       -0.3405
      6 O          13.4573    1.5856    0.0000 O.3     1  UNL1       -0.3864
      7 O          11.1972   -2.6744    0.0000 O.3     1  UNL1       -0.3841
      8 O           9.5030    0.6857    0.0000 O.3     1  UNL1       -0.3896
      9 O           6.8671   -1.1744    0.0000 O.3     1  UNL1       -0.3460
     10 O           9.4651   -3.6744    0.0000 O.3     1  UNL1       -0.3864
     11 O           7.7331   -2.6744    0.0000 O.3     1  UNL1       -0.3865
     12 O          13.9605   -2.1015    0.0000 O.3     1  UNL1       -0.3841
     13 O          10.8312    3.3644    0.0000 O.3     1  UNL1       -0.3924
     14 O           5.1350   -1.1744    0.0000 O.3     1  UNL1       -0.3405
     15 O          15.9496   -1.8924    0.0000 O.3     1  UNL1       -0.3864
     16 O          16.7631   -0.0653    0.0000 O.3     1  UNL1       -0.3865
     17 O           6.8671    0.8256    0.0000 O.3     1  UNL1       -0.3841
     18 O           5.1350    1.8256    0.0000 O.3     1  UNL1       -0.3864
     19 O           3.4030    0.8256    0.0000 O.3     1  UNL1       -0.3865
     20 O          14.9997    2.3617    0.0000 O.3     1  UNL1       -0.3924
     21 O           2.5369   -0.6744    0.0000 O.3     1  UNL1       -0.3924
     22 C          11.1972    0.3256    0.0000 C.3     1  UNL1        0.2255
     23 C          12.1972    0.3256    0.0000 C.3     1  UNL1        0.1460
     24 C          12.5062    1.2766    0.0000 C.3     1  UNL1        0.1148
     25 C          11.6972    1.8644    0.0000 C.3     1  UNL1        0.1134
     26 C          10.3312   -1.1744    0.0000 C.3     1  UNL1        0.1912
     27 C          10.3312   -2.1744    0.0000 C.3     1  UNL1        0.1342
     28 C          10.2461    0.0166    0.0000 C.3     1  UNL1        0.1009
     29 C          13.7795   -0.3789    0.0000 C.3     1  UNL1        0.1886
     30 C           9.4651   -2.6744    0.0000 C.3     1  UNL1        0.1141
     31 C           8.5991   -1.1744    0.0000 C.3     1  UNL1        0.1134
     32 C           8.5991   -2.1744    0.0000 C.3     1  UNL1        0.1119
     33 C          14.3673   -1.1879    0.0000 C.3     1  UNL1        0.1341
     34 C          11.6972    2.8644    0.0000 C.3     1  UNL1        0.0730
     35 C          15.3618   -1.0834    0.0000 C.3     1  UNL1        0.1141
     36 C          15.7685   -0.1699    0.0000 C.3     1  UNL1        0.1119
     37 C          15.1808    0.6392    0.0000 C.3     1  UNL1        0.1130
     38 C           7.7331   -0.6744    0.0000 C.3     1  UNL1        0.0796
     39 C           6.0010   -0.6744    0.0000 C.3     1  UNL1        0.1880
     40 C           6.0010    0.3256    0.0000 C.3     1  UNL1        0.1341
     41 C           5.1350    0.8256    0.0000 C.3     1  UNL1        0.1141
     42 C           4.2690    0.3256    0.0000 C.3     1  UNL1        0.1119
     43 C          15.5875    1.5527    0.0000 C.3     1  UNL1        0.0730
     44 C           4.2690   -0.6744    0.0000 C.3     1  UNL1        0.1130
     45 C           3.4030   -1.1744    0.0000 C.3     1  UNL1        0.0730
     46 H          12.8096    0.4226    0.0000 H       1  UNL1        0.0679
     47 H          12.6032    1.8890    0.0000 H       1  UNL1        0.0648
     48 H          11.1448    2.1459    0.0000 H       1  UNL1        0.0647
     49 H          10.3312   -0.5544    0.0000 H       1  UNL1        0.0939
     50 H          10.3312   -2.7944    0.0000 H       1  UNL1        0.0671
     51 H           9.7576   -0.3651    0.0000 H       1  UNL1        0.0612
     52 H          10.5372   -0.5309    0.0000 H       1  UNL1        0.0612
     53 H          13.4151    0.1227    0.0000 H       1  UNL1        0.0938
     54 H           8.9282   -2.9844    0.0000 H       1  UNL1        0.0648
     55 H           8.5991   -0.5544    0.0000 H       1  UNL1        0.0647
     56 H           8.0622   -1.8644    0.0000 H       1  UNL1        0.0647
     57 H          13.7507   -1.2527    0.0000 H       1  UNL1        0.0671
     58 H          12.3078    2.7568    0.0000 H       1  UNL1        0.0584
     59 H          11.9092    3.4470    0.0000 H       1  UNL1        0.0584
     60 H          15.1096   -1.6498    0.0000 H       1  UNL1        0.0648
     61 H          16.0207    0.3965    0.0000 H       1  UNL1        0.0647
     62 H          14.8163    1.1408    0.0000 H       1  UNL1        0.0647
     63 H           8.1316   -0.1995    0.0000 H       1  UNL1        0.0587
     64 H           7.3346   -0.1995    0.0000 H       1  UNL1        0.0587
     65 H          13.5862    2.1921    0.0000 H       1  UNL1        0.2100
     66 H           6.5380   -0.3644    0.0000 H       1  UNL1        0.0937
     67 H           6.0010    0.9456    0.0000 H       1  UNL1        0.0671
     68 H           4.5981    1.1356    0.0000 H       1  UNL1        0.0648
     69 H           4.8311    0.9456    0.0000 H       1  UNL1        0.0647
     70 H          16.1015    1.2060    0.0000 H       1  UNL1        0.0584
     71 H          16.0182    1.9987    0.0000 H       1  UNL1        0.0584
     72 H           4.2690   -1.2944    0.0000 H       1  UNL1        0.0647
     73 H          11.1972   -3.2944    0.0000 H       1  UNL1        0.2101
     74 H           8.9133    0.4941    0.0000 H       1  UNL1        0.2096
     75 H           8.9282   -3.9844    0.0000 H       1  UNL1        0.2100
     76 H           7.7331   -3.2944    0.0000 H       1  UNL1        0.2100
     77 H          13.3439   -2.1663    0.0000 H       1  UNL1        0.2101
     78 H          10.8312    3.9844    0.0000 H       1  UNL1        0.2095
     79 H          15.6974   -2.4588    0.0000 H       1  UNL1        0.2100
     80 H          17.1275   -0.5669    0.0000 H       1  UNL1        0.2100
     81 H           3.0044   -1.6494    0.0000 H       1  UNL1        0.0584
     82 H           3.8015   -1.6494    0.0000 H       1  UNL1        0.0584
     83 H           7.4040    0.5156    0.0000 H       1  UNL1        0.2101
     84 H           4.5981    2.1356    0.0000 H       1  UNL1        0.2100
     85 H           3.4030    1.4456    0.0000 H       1  UNL1        0.2100
     86 H          15.2519    2.9281    0.0000 H       1  UNL1        0.2095
     87 H           2.0000   -0.9844    0.0000 H       1  UNL1        0.2095
@<TRIPOS>BOND
     1     1    22    1
     2     1    25    1
     3    22     2    1
     4    26     2    1
     5    23     3    1
     6    29     3    1
     7     4    26    1
     8     4    31    1
     9     5    29    1
    10     5    37    1
    11    24     6    1
    12     6    65    1
    13    27     7    1
    14     7    73    1
    15     8    28    1
    16     8    74    1
    17     9    38    1
    18    39     9    1
    19    30    10    1
    20    10    75    1
    21    32    11    1
    22    11    76    1
    23    33    12    1
    24    12    77    1
    25    13    34    1
    26    13    78    1
    27    14    39    1
    28    14    44    1
    29    35    15    1
    30    15    79    1
    31    36    16    1
    32    16    80    1
    33    40    17    1
    34    17    83    1
    35    41    18    1
    36    18    84    1
    37    42    19    1
    38    19    85    1
    39    20    43    1
    40    20    86    1
    41    21    45    1
    42    21    87    1
    43    22    23    1
    44    22    28    1
    45    23    24    1
    46    23    46    1
    47    24    25    1
    48    24    47    1
    49    25    34    1
    50    25    48    1
    51    26    27    1
    52    26    49    1
    53    27    30    1
    54    27    50    1
    55    28    51    1
    56    28    52    1
    57    29    33    1
    58    29    53    1
    59    30    32    1
    60    30    54    1
    61    31    32    1
    62    31    38    1
    63    31    55    1
    64    32    56    1
    65    33    35    1
    66    33    57    1
    67    34    58    1
    68    34    59    1
    69    35    36    1
    70    35    60    1
    71    36    37    1
    72    36    61    1
    73    37    43    1
    74    37    62    1
    75    38    63    1
    76    38    64    1
    77    39    40    1
    78    39    66    1
    79    40    41    1
    80    40    67    1
    81    41    42    1
    82    41    68    1
    83    42    44    1
    84    42    69    1
    85    43    70    1
    86    43    71    1
    87    44    45    1
    88    44    72    1
    89    45    81    1
    90    45    82    1
