@<TRIPOS>MOLECULE
IMPHY012729
 35 37 0 0 0
SMALL
GASTEIGER

@<TRIPOS>ATOM
      1 O           6.3580   -1.3797    0.0000 O.2     1  UNL1       -0.4241
      2 O           8.1282   -1.3692    0.0000 O.3     1  UNL1       -0.4251
      3 O           2.8660    0.6550    0.0000 O.3     1  UNL1       -0.4885
      4 O           4.5981    1.6550    0.0000 O.3     1  UNL1       -0.5027
      5 O           2.8660   -1.3450    0.0000 O.3     1  UNL1       -0.5031
      6 O           6.3465    1.6896    0.0000 O.2     1  UNL1       -0.2868
      7 O          11.6000    0.6175    0.0000 O.3     1  UNL1       -0.5068
      8 C           5.4641    0.1550    0.0000 C.ar    1  UNL1        0.1094
      9 C           5.4641   -0.8450    0.0000 C.ar    1  UNL1        0.1499
     10 C           4.5981    0.6550    0.0000 C.ar    1  UNL1        0.1768
     11 C           3.7320    0.1550    0.0000 C.ar    1  UNL1        0.2040
     12 C           4.5981   -1.3450    0.0000 C.ar    1  UNL1        0.0269
     13 C           6.3580    0.6897    0.0000 C.ar    1  UNL1        0.1999
     14 C           3.7320   -0.8450    0.0000 C.ar    1  UNL1        0.1657
     15 C           7.2641   -0.8658    0.0000 C.ar    1  UNL1        0.2959
     16 C           7.2641    0.1758    0.0000 C.ar    1  UNL1        0.0666
     17 C           8.9962   -0.8725    0.0000 C.ar    1  UNL1        0.1321
     18 C           9.8602   -1.3758    0.0000 C.ar    1  UNL1       -0.0158
     19 C           9.0000    0.1275    0.0000 C.ar    1  UNL1       -0.0158
     20 C          10.7282   -0.8792    0.0000 C.ar    1  UNL1       -0.0167
     21 C           9.8680    0.6242    0.0000 C.ar    1  UNL1       -0.0167
     22 C          10.7320    0.1208    0.0000 C.ar    1  UNL1        0.1171
     23 C           2.0000    0.1550    0.0000 C.3     1  UNL1        0.0791
     24 H           4.5981   -1.9650    0.0000 H       1  UNL1        0.0692
     25 H           7.7998    0.4879    0.0000 H       1  UNL1        0.0727
     26 H           4.0611    1.9650    0.0000 H       1  UNL1        0.2923
     27 H           9.8578   -1.9958    0.0000 H       1  UNL1        0.0655
     28 H           8.4643    0.4396    0.0000 H       1  UNL1        0.0655
     29 H           2.8660   -1.9650    0.0000 H       1  UNL1        0.2923
     30 H          11.2639   -1.1912    0.0000 H       1  UNL1        0.0655
     31 H           9.8703    1.2442    0.0000 H       1  UNL1        0.0655
     32 H           1.6900    0.6919    0.0000 H       1  UNL1        0.0660
     33 H           1.4631   -0.1550    0.0000 H       1  UNL1        0.0660
     34 H           2.3100   -0.3819    0.0000 H       1  UNL1        0.0660
     35 H          12.1357    0.3054    0.0000 H       1  UNL1        0.2921
@<TRIPOS>BOND
     1     1     9   ar
     2     1    15   ar
     3     2    15    1
     4     2    17    1
     5     3    11    1
     6     3    23    1
     7     4    10    1
     8     4    26    1
     9     5    14    1
    10     5    29    1
    11     6    13    2
    12     7    22    1
    13     7    35    1
    14     8     9   ar
    15     8    10   ar
    16     8    13   ar
    17     9    12   ar
    18    10    11   ar
    19    11    14   ar
    20    12    14   ar
    21    12    24    1
    22    13    16   ar
    23    15    16   ar
    24    16    25    1
    25    17    18   ar
    26    17    19   ar
    27    18    20   ar
    28    18    27    1
    29    19    21   ar
    30    19    28    1
    31    20    22   ar
    32    20    30    1
    33    21    22   ar
    34    21    31    1
    35    23    32    1
    36    23    33    1
    37    23    34    1
