@<TRIPOS>MOLECULE
IMPHY014687
 37 38 0 0 0
SMALL
GASTEIGER

@<TRIPOS>ATOM
      1 C           2.8660   -0.7500    0.0000 C.3     1  UNL1       -0.0132
      2 C           2.0000   -0.2500    0.0000 C.3     1  UNL1       -0.0454
      3 C           2.8660    1.2500    0.0000 C.3     1  UNL1       -0.0184
      4 C           2.0000    0.7500    0.0000 C.3     1  UNL1       -0.0459
      5 C           3.7320   -0.2500    0.0000 C.ar    1  UNL1       -0.0404
      6 C           2.8660   -1.7500    0.0000 C.3     1  UNL1       -0.0399
      7 C           3.7320    0.7500    0.0000 C.ar    1  UNL1       -0.0411
      8 C           2.8660    2.2500    0.0000 C.3     1  UNL1       -0.0584
      9 C           4.6260   -0.7847    0.0000 C.ar    1  UNL1       -0.0551
     10 C           2.0000   -2.2500    0.0000 C.3     1  UNL1       -0.0621
     11 C           3.7320   -2.2500    0.0000 C.3     1  UNL1       -0.0621
     12 C           4.6260    1.2847    0.0000 C.ar    1  UNL1       -0.0578
     13 C           5.5321   -0.2708    0.0000 C.ar    1  UNL1       -0.0502
     14 C           5.5321    0.7708    0.0000 C.ar    1  UNL1       -0.0586
     15 C           6.3961   -0.7742    0.0000 C.3     1  UNL1       -0.0397
     16 H           2.3291   -1.0600    0.0000 H       1  UNL1        0.0351
     17 H           1.3894   -0.1423    0.0000 H       1  UNL1        0.0271
     18 H           1.7880   -0.8326    0.0000 H       1  UNL1        0.0271
     19 H           3.4030    1.5600    0.0000 H       1  UNL1        0.0346
     20 H           1.7880    1.3326    0.0000 H       1  UNL1        0.0271
     21 H           1.3894    0.6423    0.0000 H       1  UNL1        0.0271
     22 H           2.8660   -2.3700    0.0000 H       1  UNL1        0.0301
     23 H           3.4860    2.2500    0.0000 H       1  UNL1        0.0236
     24 H           2.8660    2.8700    0.0000 H       1  UNL1        0.0236
     25 H           2.2460    2.2500    0.0000 H       1  UNL1        0.0236
     26 H           4.6188   -1.4046    0.0000 H       1  UNL1        0.0623
     27 H           1.6900   -1.7131    0.0000 H       1  UNL1        0.0233
     28 H           1.4631   -2.5600    0.0000 H       1  UNL1        0.0233
     29 H           2.3100   -2.7869    0.0000 H       1  UNL1        0.0233
     30 H           3.4220   -2.7869    0.0000 H       1  UNL1        0.0233
     31 H           4.2690   -2.5600    0.0000 H       1  UNL1        0.0233
     32 H           4.0420   -1.7131    0.0000 H       1  UNL1        0.0233
     33 H           4.6188    1.9046    0.0000 H       1  UNL1        0.0621
     34 H           6.0678    1.0829    0.0000 H       1  UNL1        0.0620
     35 H           6.0841   -1.3099    0.0000 H       1  UNL1        0.0278
     36 H           6.9319   -1.0862    0.0000 H       1  UNL1        0.0278
     37 H           6.7082   -0.2384    0.0000 H       1  UNL1        0.0278
@<TRIPOS>BOND
     1     1     2    1
     2     1     5    1
     3     1     6    1
     4     1    16    1
     5     2     4    1
     6     2    17    1
     7     2    18    1
     8     3     4    1
     9     3     7    1
    10     3     8    1
    11     3    19    1
    12     4    20    1
    13     4    21    1
    14     5     7   ar
    15     5     9   ar
    16     6    10    1
    17     6    11    1
    18     6    22    1
    19     7    12   ar
    20     8    23    1
    21     8    24    1
    22     8    25    1
    23     9    13   ar
    24     9    26    1
    25    10    27    1
    26    10    28    1
    27    10    29    1
    28    11    30    1
    29    11    31    1
    30    11    32    1
    31    12    14   ar
    32    12    33    1
    33    13    14   ar
    34    13    15    1
    35    14    34    1
    36    15    35    1
    37    15    36    1
    38    15    37    1
