@<TRIPOS>MOLECULE
IMPHY017628
 44 43 0 0 0
SMALL
GASTEIGER

@<TRIPOS>ATOM
      1 O           3.7320    0.0000    0.0000 O.3     1  UNL1       -0.4635
      2 O           8.0622    2.5000    0.0000 O.3     1  UNL1       -0.3851
      3 O           4.5981   -1.5000    0.0000 O.2     1  UNL1       -0.2505
      4 C           4.5981    1.5000    0.0000 C.3     1  UNL1        0.0320
      5 C           2.8660   -1.5000    0.0000 C.3     1  UNL1        0.0534
      6 C           4.5981    0.5000    0.0000 C.3     1  UNL1        0.1023
      7 C           7.1962    2.0000    0.0000 C.3     1  UNL1        0.0786
      8 C           5.4641    2.0000    0.0000 C.2     1  UNL1       -0.0750
      9 C           2.8660   -2.5000    0.0000 C.3     1  UNL1       -0.0432
     10 C           3.7320    2.0000    0.0000 C.2     1  UNL1       -0.0697
     11 C           6.3301    1.5000    0.0000 C.2     1  UNL1       -0.0566
     12 C           3.7320   -1.0000    0.0000 C.2     1  UNL1        0.3099
     13 C           2.0000   -1.0000    0.0000 C.3     1  UNL1       -0.0523
     14 C           7.6962    1.1340    0.0000 C.3     1  UNL1       -0.0327
     15 C           6.6962    2.8660    0.0000 C.3     1  UNL1       -0.0327
     16 C           2.0000   -3.0000    0.0000 C.3     1  UNL1       -0.0645
     17 C           2.8660    1.5000    0.0000 C.3     1  UNL1       -0.0434
     18 C           3.7320    3.0000    0.0000 C.2     1  UNL1       -0.0990
     19 H           4.5981    2.1200    0.0000 H       1  UNL1        0.0421
     20 H           2.8660   -0.8800    0.0000 H       1  UNL1        0.0410
     21 H           4.8101   -0.0826    0.0000 H       1  UNL1        0.0706
     22 H           5.2087    0.6077    0.0000 H       1  UNL1        0.0706
     23 H           5.4641    2.6200    0.0000 H       1  UNL1        0.0577
     24 H           3.0781   -3.0826    0.0000 H       1  UNL1        0.0270
     25 H           3.4766   -2.3923    0.0000 H       1  UNL1        0.0270
     26 H           6.3301    0.8800    0.0000 H       1  UNL1        0.0597
     27 H           2.3100   -0.4631    0.0000 H       1  UNL1        0.0238
     28 H           1.4631   -0.6900    0.0000 H       1  UNL1        0.0238
     29 H           1.6900   -1.5369    0.0000 H       1  UNL1        0.0238
     30 H           7.1592    0.8240    0.0000 H       1  UNL1        0.0260
     31 H           8.0062    0.5970    0.0000 H       1  UNL1        0.0260
     32 H           8.2331    1.4440    0.0000 H       1  UNL1        0.0260
     33 H           7.2331    3.1760    0.0000 H       1  UNL1        0.0260
     34 H           6.3862    3.4030    0.0000 H       1  UNL1        0.0260
     35 H           6.1592    2.5560    0.0000 H       1  UNL1        0.0260
     36 H           1.6900   -2.4631    0.0000 H       1  UNL1        0.0230
     37 H           1.4631   -3.3100    0.0000 H       1  UNL1        0.0230
     38 H           2.3100   -3.5369    0.0000 H       1  UNL1        0.0230
     39 H           2.5560    2.0369    0.0000 H       1  UNL1        0.0274
     40 H           2.3291    1.1900    0.0000 H       1  UNL1        0.0274
     41 H           3.1760    0.9631    0.0000 H       1  UNL1        0.0274
     42 H           4.2690    3.3100    0.0000 H       1  UNL1        0.0535
     43 H           3.1951    3.3100    0.0000 H       1  UNL1        0.0535
     44 H           8.5991    2.1900    0.0000 H       1  UNL1        0.2106
@<TRIPOS>BOND
     1     1     6    1
     2     1    12    1
     3     2     7    1
     4     2    44    1
     5     3    12    2
     6     4     6    1
     7     4     8    1
     8     4    10    1
     9     4    19    1
    10     5     9    1
    11     5    12    1
    12     5    13    1
    13     5    20    1
    14     6    21    1
    15     6    22    1
    16     7    11    1
    17     7    14    1
    18     7    15    1
    19     8    11    2
    20     8    23    1
    21     9    16    1
    22     9    24    1
    23     9    25    1
    24    10    17    1
    25    10    18    2
    26    11    26    1
    27    13    27    1
    28    13    28    1
    29    13    29    1
    30    14    30    1
    31    14    31    1
    32    14    32    1
    33    15    33    1
    34    15    34    1
    35    15    35    1
    36    16    36    1
    37    16    37    1
    38    16    38    1
    39    17    39    1
    40    17    40    1
    41    17    41    1
    42    18    42    1
    43    18    43    1
