@<TRIPOS>MOLECULE
IMPHY002433
 45 48 0 0 0
SMALL
GASTEIGER

@<TRIPOS>ATOM
      1 O           5.5103    1.5892    0.0000 O.3     1  UNL1       -0.4908
      2 O           7.2762    2.6270    0.0000 O.3     1  UNL1       -0.5033
      3 O           2.8680    0.0819    0.0000 O.3     1  UNL1       -0.4914
      4 O           2.8680   -1.9664    0.0000 O.3     1  UNL1       -0.5033
      5 N           8.1223   -1.9391    0.0000 N.3     1  UNL1       -0.2978
      6 C           7.2641   -1.4422    0.0000 C.3     1  UNL1        0.0403
      7 C           7.2641   -0.4422    0.0000 C.ar    1  UNL1       -0.0153
      8 C           6.3981   -1.9422    0.0000 C.3     1  UNL1       -0.0072
      9 C           8.1741    0.0646    0.0000 C.ar    1  UNL1       -0.0372
     10 C           8.9878   -1.4550    0.0000 C.3     1  UNL1        0.0032
     11 C           6.3981    0.0578    0.0000 C.ar    1  UNL1        0.0327
     12 C           9.0134   -0.4636    0.0000 C.3     1  UNL1       -0.0144
     13 C           5.5320   -1.4422    0.0000 C.ar    1  UNL1       -0.0341
     14 C           5.5320   -0.4422    0.0000 C.ar    1  UNL1       -0.0070
     15 C           6.3820    1.0993    0.0000 C.ar    1  UNL1        0.1693
     16 C           8.1821    1.1062    0.0000 C.ar    1  UNL1       -0.0130
     17 C           8.1149   -2.9391    0.0000 C.3     1  UNL1       -0.0122
     18 C           7.2800    1.6271    0.0000 C.ar    1  UNL1        0.1593
     19 C           4.6381   -1.9769    0.0000 C.ar    1  UNL1       -0.0127
     20 C           4.6381    0.0925    0.0000 C.ar    1  UNL1       -0.0082
     21 C           3.7320   -0.4214    0.0000 C.ar    1  UNL1        0.1619
     22 C           3.7320   -1.4630    0.0000 C.ar    1  UNL1        0.1587
     23 C           5.4987    2.5892    0.0000 C.3     1  UNL1        0.0790
     24 C           2.0000   -0.4147    0.0000 C.3     1  UNL1        0.0790
     25 H           7.2636   -2.2922    0.0000 H       1  UNL1        0.0516
     26 H           5.9995   -2.4172    0.0000 H       1  UNL1        0.0332
     27 H           6.7966   -2.4172    0.0000 H       1  UNL1        0.0332
     28 H           9.1895   -2.0412    0.0000 H       1  UNL1        0.0430
     29 H           9.6006   -1.3606    0.0000 H       1  UNL1        0.0430
     30 H           9.6205   -0.5895    0.0000 H       1  UNL1        0.0326
     31 H           9.2452    0.1115    0.0000 H       1  UNL1        0.0326
     32 H           8.7203    1.4142    0.0000 H       1  UNL1        0.0658
     33 H           7.4949   -2.9345    0.0000 H       1  UNL1        0.0391
     34 H           8.1103   -3.5591    0.0000 H       1  UNL1        0.0391
     35 H           8.7349   -2.9437    0.0000 H       1  UNL1        0.0391
     36 H           4.6453   -2.5968    0.0000 H       1  UNL1        0.0658
     37 H           4.6453    0.7124    0.0000 H       1  UNL1        0.0661
     38 H           7.8119    2.9391    0.0000 H       1  UNL1        0.2923
     39 H           6.1187    2.5964    0.0000 H       1  UNL1        0.0660
     40 H           5.4915    3.2091    0.0000 H       1  UNL1        0.0660
     41 H           4.8787    2.5820    0.0000 H       1  UNL1        0.0660
     42 H           2.8703   -2.5864    0.0000 H       1  UNL1        0.2923
     43 H           1.6921    0.1234    0.0000 H       1  UNL1        0.0660
     44 H           1.4619   -0.7226    0.0000 H       1  UNL1        0.0660
     45 H           2.3079   -0.9528    0.0000 H       1  UNL1        0.0660
@<TRIPOS>BOND
     1     1    15    1
     2     1    23    1
     3     2    18    1
     4     2    38    1
     5     3    21    1
     6     3    24    1
     7     4    22    1
     8     4    42    1
     9     5     6    1
    10     5    10    1
    11     5    17    1
    12     6     7    1
    13     6     8    1
    14     6    25    1
    15     7     9   ar
    16     7    11   ar
    17     8    13    1
    18     8    26    1
    19     8    27    1
    20     9    12    1
    21     9    16   ar
    22    10    12    1
    23    10    28    1
    24    10    29    1
    25    11    14    1
    26    11    15   ar
    27    12    30    1
    28    12    31    1
    29    13    14   ar
    30    13    19   ar
    31    14    20   ar
    32    15    18   ar
    33    16    18   ar
    34    16    32    1
    35    17    33    1
    36    17    34    1
    37    17    35    1
    38    19    22   ar
    39    19    36    1
    40    20    21   ar
    41    20    37    1
    42    21    22   ar
    43    23    39    1
    44    23    40    1
    45    23    41    1
    46    24    43    1
    47    24    44    1
    48    24    45    1
