@<TRIPOS>MOLECULE
IMPHY012904
 55 58 0 0 0
SMALL
GASTEIGER

@<TRIPOS>ATOM
      1 O           4.6000   -0.5674    0.0000 O.3     1  UNL1       -0.4418
      2 O           9.5828    1.4124    0.0000 O.2     1  UNL1       -0.2756
      3 O           2.8690   -0.6278    0.0000 O.2     1  UNL1       -0.2453
      4 N           3.7360    0.9912    0.0000 N.3     1  UNL1       -0.2642
      5 N           7.8349    1.1324    0.0000 N.am    1  UNL1       -0.2977
      6 C           5.7861    1.2977    0.0000 C.3     1  UNL1        0.0291
      7 C           6.0449    2.2636    0.0000 C.3     1  UNL1       -0.0090
      8 C           4.0117    1.9525    0.0000 C.3     1  UNL1        0.0179
      9 C           5.3083    3.2462    0.0000 C.3     1  UNL1       -0.0381
     10 C           7.0578    0.5030    0.0000 C.3     1  UNL1        0.0335
     11 C           4.5650    0.4320    0.0000 C.3     1  UNL1        0.1622
     12 C           7.4765    2.0659    0.0000 C.3     1  UNL1        0.0192
     13 C           3.2997    2.7128    0.0000 C.3     1  UNL1       -0.0369
     14 C           7.2048   -0.5282    0.0000 C.3     1  UNL1       -0.0334
     15 C           2.7293    0.7237    0.0000 C.3     1  UNL1        0.0024
     16 C           2.2871    2.4686    0.0000 C.3     1  UNL1       -0.0505
     17 C           2.0000    1.4674    0.0000 C.3     1  UNL1       -0.0400
     18 C           8.1744   -0.9089    0.0000 C.3     1  UNL1       -0.0431
     19 C           8.8130    0.7741    0.0000 C.2     1  UNL1        0.2158
     20 C           8.9839   -0.2534    0.0000 C.3     1  UNL1        0.0242
     21 C           3.7519   -1.0973    0.0000 C.2     1  UNL1        0.3361
     22 C           3.7868   -2.0967    0.0000 C.2     1  UNL1        0.0294
     23 C           4.6697   -2.5662    0.0000 C.3     1  UNL1       -0.0333
     24 C           2.9388   -2.6266    0.0000 C.2     1  UNL1       -0.0774
     25 C           2.0558   -2.1571    0.0000 C.3     1  UNL1       -0.0461
     26 H           6.2884    1.6611    0.0000 H       1  UNL1        0.0368
     27 H           6.0494    1.6436    0.0000 H       1  UNL1        0.0331
     28 H           4.2460    2.7696    0.0000 H       1  UNL1        0.0467
     29 H           5.6261    3.7786    0.0000 H       1  UNL1        0.0274
     30 H           4.6951    3.3382    0.0000 H       1  UNL1        0.0274
     31 H           6.3972   -0.0319    0.0000 H       1  UNL1        0.0505
     32 H           4.0228    0.1314    0.0000 H       1  UNL1        0.0915
     33 H           8.0844    2.1883    0.0000 H       1  UNL1        0.0468
     34 H           7.4575    2.6856    0.0000 H       1  UNL1        0.0468
     35 H           3.8181    3.0529    0.0000 H       1  UNL1        0.0280
     36 H           3.0534    3.2818    0.0000 H       1  UNL1        0.0280
     37 H           6.5851   -0.5094    0.0000 H       1  UNL1        0.0283
     38 H           7.0803   -1.1355    0.0000 H       1  UNL1        0.0283
     39 H           2.2189    0.3717    0.0000 H       1  UNL1        0.0428
     40 H           2.9888    0.1606    0.0000 H       1  UNL1        0.0428
     41 H           2.2470    3.0873    0.0000 H       1  UNL1        0.0266
     42 H           1.6707    2.5350    0.0000 H       1  UNL1        0.0266
     43 H           1.4420    1.7377    0.0000 H       1  UNL1        0.0278
     44 H           1.6382    0.9639    0.0000 H       1  UNL1        0.0278
     45 H           7.8523   -1.4387    0.0000 H       1  UNL1        0.0270
     46 H           8.6412   -1.3169    0.0000 H       1  UNL1        0.0270
     47 H           9.2858   -0.7949    0.0000 H       1  UNL1        0.0358
     48 H           9.5690   -0.0485    0.0000 H       1  UNL1        0.0358
     49 H           4.3787   -3.1136    0.0000 H       1  UNL1        0.0280
     50 H           5.2172   -2.8572    0.0000 H       1  UNL1        0.0280
     51 H           4.9608   -2.0187    0.0000 H       1  UNL1        0.0280
     52 H           2.9604   -3.2462    0.0000 H       1  UNL1        0.0574
     53 H           2.3469   -1.6097    0.0000 H       1  UNL1        0.0272
     54 H           1.5084   -1.8661    0.0000 H       1  UNL1        0.0272
     55 H           1.7647   -2.7046    0.0000 H       1  UNL1        0.0272
@<TRIPOS>BOND
     1     1    11    1
     2     1    21    1
     3     2    19    2
     4     3    21    2
     5     4     8    1
     6     4    11    1
     7     4    15    1
     8     5    10    1
     9     5    12    1
    10     5    19   am
    11     6     9    1
    12     6    10    1
    13     6    11    1
    14     6    26    1
    15     7     8    1
    16     7     9    1
    17     7    12    1
    18     7    27    1
    19     8    13    1
    20     8    28    1
    21     9    29    1
    22     9    30    1
    23    10    14    1
    24    10    31    1
    25    11    32    1
    26    12    33    1
    27    12    34    1
    28    13    16    1
    29    13    35    1
    30    13    36    1
    31    14    18    1
    32    14    37    1
    33    14    38    1
    34    15    17    1
    35    15    39    1
    36    15    40    1
    37    16    17    1
    38    16    41    1
    39    16    42    1
    40    17    43    1
    41    17    44    1
    42    18    20    1
    43    18    45    1
    44    18    46    1
    45    19    20    1
    46    20    47    1
    47    20    48    1
    48    21    22    1
    49    22    23    1
    50    22    24    2
    51    23    49    1
    52    23    50    1
    53    23    51    1
    54    24    25    1
    55    24    52    1
    56    25    53    1
    57    25    54    1
    58    25    55    1
