@<TRIPOS>MOLECULE
IMPHY008374
 53 55 0 0 0
SMALL
GASTEIGER

@<TRIPOS>ATOM
      1 O           7.8055    2.1490    0.0000 O.3     1  UNL1       -0.3386
      2 O           4.8810    0.3478    0.0000 O.3     1  UNL1       -0.4572
      3 O           7.2682   -1.6800    0.0000 O.3     1  UNL1       -0.4532
      4 O           9.5616    1.6464    0.0000 O.3     1  UNL1       -0.3611
      5 O          10.0720   -0.5919    0.0000 O.3     1  UNL1       -0.3906
      6 O           5.9704   -2.8929    0.0000 O.2     1  UNL1       -0.2453
      7 O           4.5802    2.0535    0.0000 O.2     1  UNL1       -0.2453
      8 C           6.8055    2.1490    0.0000 C.3     1  UNL1        0.0739
      9 C           7.5258    2.8418    0.0000 C.3     1  UNL1       -0.0186
     10 C           6.0394    1.5062    0.0000 C.3     1  UNL1        0.0141
     11 C           8.5715    1.5062    0.0000 C.3     1  UNL1        0.1929
     12 C           8.4650    2.4999    0.0000 C.3     1  UNL1        0.0082
     13 C           5.8658    0.5214    0.0000 C.3     1  UNL1        0.1167
     14 C           6.3658   -0.3446    0.0000 C.3     1  UNL1        0.0681
     15 C           7.3055   -0.6866    0.0000 C.3     1  UNL1        0.1324
     16 C           8.7452    0.5214    0.0000 C.2     1  UNL1        0.0132
     17 C           6.1371    2.8929    0.0000 C.3     1  UNL1       -0.0356
     18 C           8.2452   -0.3446    0.0000 C.2     1  UNL1       -0.0368
     19 C           5.7558   -1.1295    0.0000 C.2     1  UNL1        0.0400
     20 C           9.7300    0.3478    0.0000 C.3     1  UNL1        0.0703
     21 C           6.3124   -1.9532    0.0000 C.2     1  UNL1        0.3357
     22 C           4.7563   -1.0964    0.0000 C.2     1  UNL1       -0.0882
     23 C           4.2382    1.1138    0.0000 C.2     1  UNL1        0.3348
     24 C           3.2534    0.9402    0.0000 C.2     1  UNL1        0.0293
     25 C           2.9114    0.0005    0.0000 C.3     1  UNL1       -0.0333
     26 C           2.6106    1.7062    0.0000 C.2     1  UNL1       -0.0774
     27 C           2.9526    2.6459    0.0000 C.3     1  UNL1       -0.0461
     28 H           7.8236    3.3855    0.0000 H       1  UNL1        0.0295
     29 H           7.0334    3.2184    0.0000 H       1  UNL1        0.0295
     30 H           5.7938    2.0755    0.0000 H       1  UNL1        0.0329
     31 H           5.4236    1.4343    0.0000 H       1  UNL1        0.0329
     32 H           9.0843    2.4720    0.0000 H       1  UNL1        0.0321
     33 H           8.5864    3.1079    0.0000 H       1  UNL1        0.0321
     34 H           5.4274    0.9598    0.0000 H       1  UNL1        0.0742
     35 H           5.5670   -0.0539    0.0000 H       1  UNL1        0.0427
     36 H           8.1042   -0.9773    0.0000 H       1  UNL1        0.0787
     37 H           6.5983    3.3072    0.0000 H       1  UNL1        0.0257
     38 H           5.7227    3.3541    0.0000 H       1  UNL1        0.0257
     39 H           5.6759    2.4785    0.0000 H       1  UNL1        0.0257
     40 H           8.6437   -0.8195    0.0000 H       1  UNL1        0.0611
     41 H          10.3405    0.4554    0.0000 H       1  UNL1        0.0606
     42 H           9.7300    0.9678    0.0000 H       1  UNL1        0.0606
     43 H           9.7933    2.2216    0.0000 H       1  UNL1        0.2131
     44 H           4.4643   -0.5494    0.0000 H       1  UNL1        0.0540
     45 H           4.4287   -1.6227    0.0000 H       1  UNL1        0.0540
     46 H          10.6826   -0.6996    0.0000 H       1  UNL1        0.2098
     47 H           2.3287    0.2125    0.0000 H       1  UNL1        0.0280
     48 H           2.6993   -0.5821    0.0000 H       1  UNL1        0.0280
     49 H           3.4940   -0.2116    0.0000 H       1  UNL1        0.0280
     50 H           2.0000    1.5986    0.0000 H       1  UNL1        0.0574
     51 H           3.5352    2.4339    0.0000 H       1  UNL1        0.0272
     52 H           3.1646    3.2285    0.0000 H       1  UNL1        0.0272
     53 H           2.3700    2.8580    0.0000 H       1  UNL1        0.0272
@<TRIPOS>BOND
     1     1     8    1
     2     1    11    1
     3    13     2    1
     4     2    23    1
     5     3    15    1
     6     3    21    1
     7    11     4    1
     8     4    43    1
     9     5    20    1
    10     5    46    1
    11     6    21    2
    12     7    23    2
    13     8     9    1
    14     8    10    1
    15     8    17    1
    16     9    12    1
    17     9    28    1
    18     9    29    1
    19    10    13    1
    20    10    30    1
    21    10    31    1
    22    11    12    1
    23    11    16    1
    24    12    32    1
    25    12    33    1
    26    13    14    1
    27    13    34    1
    28    14    15    1
    29    14    19    1
    30    14    35    1
    31    15    18    1
    32    15    36    1
    33    16    18    2
    34    16    20    1
    35    17    37    1
    36    17    38    1
    37    17    39    1
    38    18    40    1
    39    19    21    1
    40    19    22    2
    41    20    41    1
    42    20    42    1
    43    22    44    1
    44    22    45    1
    45    23    24    1
    46    24    25    1
    47    24    26    2
    48    25    47    1
    49    25    48    1
    50    25    49    1
    51    26    27    1
    52    26    50    1
    53    27    51    1
    54    27    52    1
    55    27    53    1
