@<TRIPOS>MOLECULE
IMPHY006579
 62 62 0 0 0
SMALL
GASTEIGER

@<TRIPOS>ATOM
      1 S          13.2583   -2.7500    0.0000 S.3     1  UNL1       -0.1641
      2 O           8.9282   -3.2500    0.0000 O.2     1  UNL1       -0.2738
      3 O           7.1962    2.7500    0.0000 O.3     1  UNL1       -0.3911
      4 O           5.4641    1.7500    0.0000 O.3     1  UNL1       -0.3911
      5 O          12.3923   -4.2500    0.0000 O.2     1  UNL1       -0.2761
      6 O           8.0622    4.2500    0.0000 O.3     1  UNL1       -0.4338
      7 O           3.7320    1.7500    0.0000 O.3     1  UNL1       -0.4338
      8 O           8.9282    2.7500    0.0000 O.2     1  UNL1       -0.2025
      9 O           4.5981    0.2500    0.0000 O.2     1  UNL1       -0.2025
     10 N           9.7942   -1.7500    0.0000 N.am    1  UNL1       -0.3135
     11 N          10.6603   -4.2500    0.0000 N.am    1  UNL1       -0.3042
     12 C          10.6603   -3.2500    0.0000 C.3     1  UNL1        0.1001
     13 C          11.5263   -2.7500    0.0000 C.3     1  UNL1       -0.0169
     14 C           9.7942   -2.7500    0.0000 C.2     1  UNL1        0.2334
     15 C           8.9282   -1.2500    0.0000 C.3     1  UNL1        0.0156
     16 C           8.9282   -0.2500    0.0000 C.3     1  UNL1       -0.0119
     17 C          12.3923   -3.2500    0.0000 C.3     1  UNL1       -0.0044
     18 C           8.0622    0.2500    0.0000 C.ar    1  UNL1       -0.0422
     19 C           8.0622    1.2500    0.0000 C.ar    1  UNL1       -0.0122
     20 C           7.1962   -0.2500    0.0000 C.ar    1  UNL1       -0.0548
     21 C          11.5263   -4.7500    0.0000 C.2     1  UNL1        0.2105
     22 C           7.1962    1.7500    0.0000 C.ar    1  UNL1        0.1775
     23 C           6.3301    0.2500    0.0000 C.ar    1  UNL1       -0.0152
     24 C           6.3301    1.2500    0.0000 C.ar    1  UNL1        0.1773
     25 C          11.5263   -5.7500    0.0000 C.3     1  UNL1        0.0122
     26 C          14.1244   -3.2500    0.0000 C.3     1  UNL1       -0.0181
     27 C           8.0622    3.2500    0.0000 C.2     1  UNL1        0.5157
     28 C           4.5981    1.2500    0.0000 C.2     1  UNL1        0.5157
     29 C           8.9282    4.7500    0.0000 C.3     1  UNL1        0.0931
     30 C           2.8660    1.2500    0.0000 C.3     1  UNL1        0.0931
     31 C           8.9282    5.7500    0.0000 C.3     1  UNL1       -0.0305
     32 C           2.0000    1.7500    0.0000 C.3     1  UNL1       -0.0305
     33 H          11.1972   -3.5600    0.0000 H       1  UNL1        0.0595
     34 H          11.9248   -2.2750    0.0000 H       1  UNL1        0.0296
     35 H          11.1278   -2.2750    0.0000 H       1  UNL1        0.0296
     36 H           8.3176   -1.1423    0.0000 H       1  UNL1        0.0465
     37 H           8.7162   -1.8326    0.0000 H       1  UNL1        0.0465
     38 H           9.5388   -0.3577    0.0000 H       1  UNL1        0.0328
     39 H           9.1403    0.3326    0.0000 H       1  UNL1        0.0328
     40 H          10.3312   -1.4400    0.0000 H       1  UNL1        0.1487
     41 H          11.9938   -3.7250    0.0000 H       1  UNL1        0.0377
     42 H          12.7908   -3.7250    0.0000 H       1  UNL1        0.0377
     43 H          10.1233   -4.5600    0.0000 H       1  UNL1        0.1494
     44 H           8.5991    1.5600    0.0000 H       1  UNL1        0.0658
     45 H           7.1962   -0.8700    0.0000 H       1  UNL1        0.0621
     46 H           5.7932   -0.0600    0.0000 H       1  UNL1        0.0656
     47 H          10.9063   -5.7500    0.0000 H       1  UNL1        0.0322
     48 H          11.5263   -6.3700    0.0000 H       1  UNL1        0.0322
     49 H          12.1463   -5.7500    0.0000 H       1  UNL1        0.0322
     50 H          13.8144   -3.7869    0.0000 H       1  UNL1        0.0340
     51 H          14.6613   -3.5600    0.0000 H       1  UNL1        0.0340
     52 H          14.4344   -2.7131    0.0000 H       1  UNL1        0.0340
     53 H           9.1403    4.1674    0.0000 H       1  UNL1        0.0696
     54 H           9.5388    4.8577    0.0000 H       1  UNL1        0.0696
     55 H           2.4675    0.7751    0.0000 H       1  UNL1        0.0696
     56 H           3.2646    0.7751    0.0000 H       1  UNL1        0.0696
     57 H           9.5482    5.7500    0.0000 H       1  UNL1        0.0262
     58 H           8.9282    6.3700    0.0000 H       1  UNL1        0.0262
     59 H           8.3082    5.7500    0.0000 H       1  UNL1        0.0262
     60 H           2.3100    2.2869    0.0000 H       1  UNL1        0.0262
     61 H           1.4631    2.0600    0.0000 H       1  UNL1        0.0262
     62 H           1.6900    1.2131    0.0000 H       1  UNL1        0.0262
@<TRIPOS>BOND
     1     1    17    1
     2     1    26    1
     3     2    14    2
     4     3    22    1
     5     3    27    1
     6     4    24    1
     7     4    28    1
     8     5    21    2
     9     6    27    1
    10     6    29    1
    11     7    28    1
    12     7    30    1
    13     8    27    2
    14     9    28    2
    15    10    14   am
    16    10    15    1
    17    10    40    1
    18    12    11    1
    19    11    21   am
    20    11    43    1
    21    12    13    1
    22    12    14    1
    23    12    33    1
    24    13    17    1
    25    13    34    1
    26    13    35    1
    27    15    16    1
    28    15    36    1
    29    15    37    1
    30    16    18    1
    31    16    38    1
    32    16    39    1
    33    17    41    1
    34    17    42    1
    35    18    19   ar
    36    18    20   ar
    37    19    22   ar
    38    19    44    1
    39    20    23   ar
    40    20    45    1
    41    21    25    1
    42    22    24   ar
    43    23    24   ar
    44    23    46    1
    45    25    47    1
    46    25    48    1
    47    25    49    1
    48    26    50    1
    49    26    51    1
    50    26    52    1
    51    29    31    1
    52    29    53    1
    53    29    54    1
    54    30    32    1
    55    30    55    1
    56    30    56    1
    57    31    57    1
    58    31    58    1
    59    31    59    1
    60    32    60    1
    61    32    61    1
    62    32    62    1
