@<TRIPOS>MOLECULE
IMPHY012121
 17 16 0 0 0
SMALL
GASTEIGER

@<TRIPOS>ATOM
      1 O           4.2690   -1.2500    0.0000 O.2     1  GLY1       -0.2744
      2 O           7.7331   -0.2500    0.0000 O.3     2  GLY2       -0.4795
      3 OXT         6.8671    1.2500    0.0000 O.2     2  GLY2       -0.2492
      4 N           5.1350    0.2500    0.0000 N.am    2  GLY2       -0.3038
      5 N           2.5369   -0.2500    0.0000 N.3     1  GLY1       -0.3225
      6 CA          6.0010   -0.2500    0.0000 C.3     2  GLY2        0.1089
      7 C           4.2690   -0.2500    0.0000 C.2     1  GLY1        0.2271
      8 CA          3.4030    0.2500    0.0000 C.3     1  GLY1        0.0707
      9 C           6.8671    0.2500    0.0000 C.2     2  GLY2        0.3221
     10 HA1         5.6025   -0.7249    0.0000 H       2  GLY2        0.0577
     11 HA2         6.3996   -0.7249    0.0000 H       2  GLY2        0.0577
     12 H           5.1350    0.8700    0.0000 H       2  GLY2        0.1493
     13 HA1         3.8015    0.7249    0.0000 H       1  GLY1        0.0518
     14 HA2         3.0044    0.7249    0.0000 H       1  GLY1        0.0518
     15 H1          2.0000    0.0600    0.0000 H       1  GLY1        0.1186
     16 H2          2.5369   -0.8700    0.0000 H       1  GLY1        0.1186
     17 H           8.2700    0.0600    0.0000 H       2  GLY2        0.2951
@<TRIPOS>BOND
     1     1     7    2
     2     2     9    1
     3     2    17    1
     4     3     9    2
     5     4     6    1
     6     4     7   am
     7     4    12    1
     8     5     8    1
     9     5    15    1
    10     5    16    1
    11     6     9    1
    12     6    10    1
    13     6    11    1
    14     7     8    1
    15     8    13    1
    16     8    14    1
