@<TRIPOS>MOLECULE
IMPHY010909
 49 52 0 0 0
SMALL
GASTEIGER

@<TRIPOS>ATOM
      1 O           5.1350   -0.6296    0.0000 O.3     1  UNL1       -0.3313
      2 O           6.8671   -0.6296    0.0000 O.3     1  UNL1       -0.4532
      3 O           5.1350   -3.6296    0.0000 O.3     1  UNL1       -0.3864
      4 O           3.4030   -2.6296    0.0000 O.3     1  UNL1       -0.3865
      5 O           6.8671   -2.6296    0.0000 O.3     1  UNL1       -0.3829
      6 O           2.5369   -1.1296    0.0000 O.3     1  UNL1       -0.3924
      7 O           7.7331    1.8704    0.0000 O.2     1  UNL1       -0.4509
      8 O           5.1350    0.3704    0.0000 O.2     1  UNL1       -0.2831
      9 C           5.1350   -2.6296    0.0000 C.3     1  UNL1        0.1152
     10 C           4.2690   -2.1296    0.0000 C.3     1  UNL1        0.1120
     11 C           6.0010   -2.1296    0.0000 C.3     1  UNL1        0.1454
     12 C           4.2690   -1.1296    0.0000 C.3     1  UNL1        0.1140
     13 C           6.0010   -1.1296    0.0000 C.3     1  UNL1        0.2311
     14 C           3.4030   -0.6296    0.0000 C.3     1  UNL1        0.0731
     15 C           6.8671    0.3704    0.0000 C.ar    1  UNL1        0.2136
     16 C           7.7331    0.8704    0.0000 C.ar    1  UNL1        0.1809
     17 C           6.0010    0.8704    0.0000 C.ar    1  UNL1        0.2346
     18 C           6.0010    1.8704    0.0000 C.ar    1  UNL1        0.0677
     19 C           6.8671    2.3704    0.0000 C.ar    1  UNL1        0.1395
     20 C           8.5991    0.3704    0.0000 C.ar    1  UNL1        0.0211
     21 C           5.0910    2.3772    0.0000 C.ar    1  UNL1       -0.0473
     22 C           6.8831    3.4119    0.0000 C.ar    1  UNL1       -0.0186
     23 C           9.4651    0.8704    0.0000 C.ar    1  UNL1       -0.0510
     24 C           8.5991   -0.6296    0.0000 C.ar    1  UNL1       -0.0510
     25 C           5.0830    3.4188    0.0000 C.ar    1  UNL1       -0.0609
     26 C           5.9851    3.9396    0.0000 C.ar    1  UNL1       -0.0582
     27 C          10.3312    0.3704    0.0000 C.ar    1  UNL1       -0.0611
     28 C           9.4651   -1.1296    0.0000 C.ar    1  UNL1       -0.0611
     29 C          10.3312   -0.6296    0.0000 C.ar    1  UNL1       -0.0617
     30 H           5.6720   -2.9396    0.0000 H       1  UNL1        0.0648
     31 H           4.2690   -2.7496    0.0000 H       1  UNL1        0.0647
     32 H           6.5380   -1.8196    0.0000 H       1  UNL1        0.0683
     33 H           4.2690   -0.5096    0.0000 H       1  UNL1        0.0647
     34 H           6.0010   -0.5096    0.0000 H       1  UNL1        0.1084
     35 H           3.8015   -0.1547    0.0000 H       1  UNL1        0.0584
     36 H           3.0044   -0.1547    0.0000 H       1  UNL1        0.0584
     37 H           4.5981   -3.9396    0.0000 H       1  UNL1        0.2100
     38 H           3.4030   -3.2496    0.0000 H       1  UNL1        0.2100
     39 H           6.8671   -3.2496    0.0000 H       1  UNL1        0.2102
     40 H           2.0000   -0.8196    0.0000 H       1  UNL1        0.2095
     41 H           4.5577    2.0610    0.0000 H       1  UNL1        0.0626
     42 H           7.4236    3.7156    0.0000 H       1  UNL1        0.0654
     43 H           9.4651    1.4904    0.0000 H       1  UNL1        0.0625
     44 H           8.0622   -0.9396    0.0000 H       1  UNL1        0.0625
     45 H           4.5449    3.7267    0.0000 H       1  UNL1        0.0618
     46 H           5.9875    4.5596    0.0000 H       1  UNL1        0.0619
     47 H          10.8681    0.6804    0.0000 H       1  UNL1        0.0618
     48 H           9.4651   -1.7496    0.0000 H       1  UNL1        0.0618
     49 H          10.8681   -0.9396    0.0000 H       1  UNL1        0.0618
@<TRIPOS>BOND
     1     1    12    1
     2     1    13    1
     3    13     2    1
     4     2    15    1
     5     9     3    1
     6     3    37    1
     7    10     4    1
     8     4    38    1
     9    11     5    1
    10     5    39    1
    11     6    14    1
    12     6    40    1
    13     7    16   ar
    14     7    19   ar
    15     8    17    2
    16     9    10    1
    17     9    11    1
    18     9    30    1
    19    10    12    1
    20    10    31    1
    21    11    13    1
    22    11    32    1
    23    12    14    1
    24    12    33    1
    25    13    34    1
    26    14    35    1
    27    14    36    1
    28    15    16   ar
    29    15    17   ar
    30    16    20    1
    31    17    18   ar
    32    18    19   ar
    33    18    21   ar
    34    19    22   ar
    35    20    23   ar
    36    20    24   ar
    37    21    25   ar
    38    21    41    1
    39    22    26   ar
    40    22    42    1
    41    23    27   ar
    42    23    43    1
    43    24    28   ar
    44    24    44    1
    45    25    26   ar
    46    25    45    1
    47    26    46    1
    48    27    29   ar
    49    27    47    1
    50    28    29   ar
    51    28    48    1
    52    29    49    1
