@<TRIPOS>MOLECULE
IMPHY011680
 27 27 0 0 0
SMALL
GASTEIGER

@<TRIPOS>ATOM
      1 O           2.0000    1.0000    0.0000 O.3     1  UNL1       -0.3856
      2 N           3.7320    2.0000    0.0000 N.3     1  UNL1       -0.3138
      3 C           3.7320    1.0000    0.0000 C.3     1  UNL1        0.0347
      4 C           2.8660    0.5000    0.0000 C.3     1  UNL1        0.0952
      5 C           2.8660   -0.5000    0.0000 C.ar    1  UNL1       -0.0177
      6 C           4.5981    0.5000    0.0000 C.3     1  UNL1       -0.0470
      7 C           2.0000   -1.0000    0.0000 C.ar    1  UNL1       -0.0561
      8 C           3.7320   -1.0000    0.0000 C.ar    1  UNL1       -0.0561
      9 C           4.5981    2.5000    0.0000 C.3     1  UNL1       -0.0155
     10 C           2.0000   -2.0000    0.0000 C.ar    1  UNL1       -0.0614
     11 C           3.7320   -2.0000    0.0000 C.ar    1  UNL1       -0.0614
     12 C           2.8660   -2.5000    0.0000 C.ar    1  UNL1       -0.0617
     13 H           4.2690    1.3100    0.0000 H       1  UNL1        0.0486
     14 H           2.8660    1.1200    0.0000 H       1  UNL1        0.0659
     15 H           4.2881   -0.0369    0.0000 H       1  UNL1        0.0246
     16 H           5.1350    0.1900    0.0000 H       1  UNL1        0.0246
     17 H           4.9081    1.0369    0.0000 H       1  UNL1        0.0246
     18 H           3.1951    2.3100    0.0000 H       1  UNL1        0.1220
     19 H           1.4631   -0.6900    0.0000 H       1  UNL1        0.0621
     20 H           4.2690   -0.6900    0.0000 H       1  UNL1        0.0621
     21 H           2.0000    1.6200    0.0000 H       1  UNL1        0.2103
     22 H           4.9081    1.9631    0.0000 H       1  UNL1        0.0388
     23 H           5.1350    2.8100    0.0000 H       1  UNL1        0.0388
     24 H           4.2881    3.0369    0.0000 H       1  UNL1        0.0388
     25 H           1.4631   -2.3100    0.0000 H       1  UNL1        0.0618
     26 H           4.2690   -2.3100    0.0000 H       1  UNL1        0.0618
     27 H           2.8660   -3.1200    0.0000 H       1  UNL1        0.0618
@<TRIPOS>BOND
     1     4     1    1
     2     1    21    1
     3     3     2    1
     4     2     9    1
     5     2    18    1
     6     3     4    1
     7     3     6    1
     8     3    13    1
     9     4     5    1
    10     4    14    1
    11     5     7   ar
    12     5     8   ar
    13     6    15    1
    14     6    16    1
    15     6    17    1
    16     7    10   ar
    17     7    19    1
    18     8    11   ar
    19     8    20    1
    20     9    22    1
    21     9    23    1
    22     9    24    1
    23    10    12   ar
    24    10    25    1
    25    11    12   ar
    26    11    26    1
    27    12    27    1
