@<TRIPOS>MOLECULE
IMPHY007808
 107 117 0 0 0
SMALL
GASTEIGER

@<TRIPOS>ATOM
      1 O           9.0348    2.2982    0.0000 O.3     1  UNL1       -0.4839
      2 O          10.9761    1.3264    0.0000 O.3     1  UNL1       -0.3875
      3 O          12.7601   -1.7154    0.0000 O.3     1  UNL1       -0.4646
      4 O           8.6542   -5.1424    0.0000 O.3     1  UNL1       -0.4896
      5 O          11.8999   -3.2187    0.0000 O.2     1  UNL1       -0.2453
      6 O           5.7451   -3.0155    0.0000 O.3     1  UNL1       -0.5032
      7 O           6.5802   -4.9262    0.0000 O.3     1  UNL1       -0.4885
      8 O           2.6073    4.9734    0.0000 O.3     1  UNL1       -0.4646
      9 O           4.3062    5.3109    0.0000 O.2     1  UNL1       -0.2453
     10 N           8.3780   -0.1736    0.0000 N.3     1  UNL1       -0.2872
     11 N           9.9003   -3.2534    0.0000 N.pl3   1  UNL1       -0.3135
     12 N           4.0942    0.5250    0.0000 N.3     1  UNL1       -0.2937
     13 N           5.6544    3.8368    0.0000 N.pl3   1  UNL1       -0.3163
     14 C           9.2440   -0.6736    0.0000 C.3     1  UNL1        0.0344
     15 C          10.1100   -0.1736    0.0000 C.3     1  UNL1        0.0210
     16 C           9.2280   -1.7151    0.0000 C.3     1  UNL1        0.0534
     17 C           8.3780    0.8264    0.0000 C.3     1  UNL1        0.0790
     18 C          10.1100    0.8264    0.0000 C.3     1  UNL1        0.1011
     19 C           9.2440    1.3264    0.0000 C.3     1  UNL1        0.1460
     20 C           8.2399   -1.8222    0.0000 C.3     1  UNL1       -0.0237
     21 C           7.7601   -0.9519    0.0000 C.3     1  UNL1        0.0011
     22 C          11.0200   -0.6804    0.0000 C.3     1  UNL1       -0.0098
     23 C          10.1260   -2.2428    0.0000 C.2     1  UNL1        0.0305
     24 C          10.9761    0.3264    0.0000 C.3     1  UNL1       -0.0460
     25 C           8.4549   -2.4040    0.0000 C.ar    1  UNL1       -0.0057
     26 C           4.9752    2.3150    0.0000 C.3     1  UNL1        0.0533
     27 C          11.0281   -1.7220    0.0000 C.2     1  UNL1        0.0551
     28 C           7.6410    1.4935    0.0000 C.ar    1  UNL1        0.0154
     29 C           4.1883    1.5867    0.0000 C.3     1  UNL1        0.0349
     30 C           3.1666    1.9119    0.0000 C.3     1  UNL1        0.0095
     31 C           5.9985    2.2038    0.0000 C.ar    1  UNL1       -0.0124
     32 C           8.0461    2.4013    0.0000 C.ar    1  UNL1        0.1277
     33 C           8.8696   -3.3528    0.0000 C.ar    1  UNL1        0.0815
     34 C           5.5183    1.3979    0.0000 C.3     1  UNL1       -0.0237
     35 C           4.7629    3.3222    0.0000 C.2     1  UNL1        0.0304
     36 C           6.6129    1.3703    0.0000 C.ar    1  UNL1       -0.0476
     37 C           4.9447    0.3512    0.0000 C.3     1  UNL1        0.0007
     38 C           6.4205    3.1494    0.0000 C.ar    1  UNL1        0.0388
     39 C           2.9455    2.9610    0.0000 C.3     1  UNL1       -0.0089
     40 C          11.8421   -0.1736    0.0000 C.3     1  UNL1       -0.0646
     41 C           7.3850   -2.2674    0.0000 C.ar    1  UNL1       -0.0104
     42 C           7.4512    3.2488    0.0000 C.ar    1  UNL1        0.0019
     43 C           3.7491    3.6709    0.0000 C.2     1  UNL1        0.0553
     44 C           2.2138    2.2152    0.0000 C.3     1  UNL1       -0.0450
     45 C           3.2525   -0.1296    0.0000 C.3     1  UNL1        0.0175
     46 C          11.8960   -2.2187    0.0000 C.2     1  UNL1        0.3364
     47 C           2.2402    1.3840    0.0000 C.2     1  UNL1       -0.0787
     48 C           8.2431   -4.2308    0.0000 C.ar    1  UNL1        0.1866
     49 C           2.2849    0.3186    0.0000 C.2     1  UNL1       -0.0734
     50 C           6.7384   -3.1307    0.0000 C.ar    1  UNL1        0.1626
     51 C           7.1704   -4.1190    0.0000 C.ar    1  UNL1        0.2052
     52 C           2.0000    3.1921    0.0000 C.3     1  UNL1       -0.0644
     53 C           3.5542    4.6517    0.0000 C.2     1  UNL1        0.3364
     54 C          13.6281   -2.2120    0.0000 C.3     1  UNL1        0.0820
     55 C           8.0702   -5.9542    0.0000 C.3     1  UNL1        0.0791
     56 C           5.5860   -4.8187    0.0000 C.3     1  UNL1        0.0791
     57 C           2.4124    5.9542    0.0000 C.3     1  UNL1        0.0820
     58 H           9.9801   -1.0986    0.0000 H       1  UNL1        0.0481
     59 H           7.6010    0.4817    0.0000 H       1  UNL1        0.0551
     60 H          10.1100    1.4464    0.0000 H       1  UNL1        0.0637
     61 H           9.9310    1.8269    0.0000 H       1  UNL1        0.0779
     62 H           7.6623   -2.0476    0.0000 H       1  UNL1        0.0290
     63 H           8.3873   -2.4245    0.0000 H       1  UNL1        0.0290
     64 H           7.3294   -0.5059    0.0000 H       1  UNL1        0.0427
     65 H           7.2612   -1.3202    0.0000 H       1  UNL1        0.0427
     66 H          11.6317   -0.7818    0.0000 H       1  UNL1        0.0323
     67 H          11.2246   -0.0951    0.0000 H       1  UNL1        0.0323
     68 H          11.3746    0.8014    0.0000 H       1  UNL1        0.0269
     69 H          10.5775    0.8014    0.0000 H       1  UNL1        0.0269
     70 H           4.9983    1.3288    0.0000 H       1  UNL1        0.0484
     71 H          10.3108   -3.7181    0.0000 H       1  UNL1        0.1520
     72 H           6.0006    1.0082    0.0000 H       1  UNL1        0.0290
     73 H           5.9873    1.8034    0.0000 H       1  UNL1        0.0290
     74 H           6.3668    0.8012    0.0000 H       1  UNL1        0.0626
     75 H           4.7606   -0.2408    0.0000 H       1  UNL1        0.0427
     76 H           5.5154    0.1090    0.0000 H       1  UNL1        0.0427
     77 H           2.6206    3.4891    0.0000 H       1  UNL1        0.0325
     78 H           2.3697    2.7312    0.0000 H       1  UNL1        0.0325
     79 H          10.9761    1.9464    0.0000 H       1  UNL1        0.2100
     80 H          11.5321   -0.7105    0.0000 H       1  UNL1        0.0230
     81 H          12.3790   -0.4836    0.0000 H       1  UNL1        0.0230
     82 H          12.1521    0.3633    0.0000 H       1  UNL1        0.0230
     83 H           7.1433   -1.6965    0.0000 H       1  UNL1        0.0659
     84 H           7.7104    3.8120    0.0000 H       1  UNL1        0.0673
     85 H           5.7186    4.4535    0.0000 H       1  UNL1        0.1519
     86 H           1.5943    2.1899    0.0000 H       1  UNL1        0.0272
     87 H           2.1311    1.6007    0.0000 H       1  UNL1        0.0272
     88 H           2.9062   -0.6440    0.0000 H       1  UNL1        0.0470
     89 H           3.7056   -0.5528    0.0000 H       1  UNL1        0.0470
     90 H           1.6977    1.6842    0.0000 H       1  UNL1        0.0576
     91 H           1.7696   -0.0260    0.0000 H       1  UNL1        0.0582
     92 H           2.6057    3.3246    0.0000 H       1  UNL1        0.0230
     93 H           1.8675    3.7978    0.0000 H       1  UNL1        0.0230
     94 H           1.3943    3.0596    0.0000 H       1  UNL1        0.0230
     95 H           5.3753   -3.5132    0.0000 H       1  UNL1        0.2923
     96 H          13.3201   -2.7501    0.0000 H       1  UNL1        0.0661
     97 H          14.1662   -2.5199    0.0000 H       1  UNL1        0.0661
     98 H          13.9360   -1.6739    0.0000 H       1  UNL1        0.0661
     99 H           7.5669   -5.5921    0.0000 H       1  UNL1        0.0660
    100 H           7.7082   -6.4575    0.0000 H       1  UNL1        0.0660
    101 H           8.5735   -6.3162    0.0000 H       1  UNL1        0.0660
    102 H           5.6526   -4.2023    0.0000 H       1  UNL1        0.0660
    103 H           4.9696   -4.7521    0.0000 H       1  UNL1        0.0660
    104 H           5.5193   -5.4352    0.0000 H       1  UNL1        0.0660
    105 H           3.0205    6.0750    0.0000 H       1  UNL1        0.0661
    106 H           2.2916    6.5623    0.0000 H       1  UNL1        0.0661
    107 H           1.8043    5.8334    0.0000 H       1  UNL1        0.0661
@<TRIPOS>BOND
     1     1    19    1
     2     1    32    1
     3    18     2    1
     4     2    79    1
     5     3    46    1
     6     3    54    1
     7     4    48    1
     8     4    55    1
     9     5    46    2
    10     6    50    1
    11     6    95    1
    12     7    51    1
    13     7    56    1
    14     8    53    1
    15     8    57    1
    16     9    53    2
    17    10    14    1
    18    10    17    1
    19    10    21    1
    20    11    23    1
    21    11    33    1
    22    11    71    1
    23    12    29    1
    24    12    37    1
    25    12    45    1
    26    13    35    1
    27    13    38    1
    28    13    85    1
    29    14    15    1
    30    14    16    1
    31    14    58    1
    32    15    18    1
    33    15    22    1
    34    15    24    1
    35    16    20    1
    36    16    23    1
    37    16    25    1
    38    17    19    1
    39    17    28    1
    40    17    59    1
    41    18    19    1
    42    18    60    1
    43    19    61    1
    44    20    21    1
    45    20    62    1
    46    20    63    1
    47    21    64    1
    48    21    65    1
    49    22    27    1
    50    22    66    1
    51    22    67    1
    52    23    27    2
    53    24    40    1
    54    24    68    1
    55    24    69    1
    56    25    33   ar
    57    25    41   ar
    58    26    29    1
    59    26    31    1
    60    26    34    1
    61    26    35    1
    62    27    46    1
    63    28    32   ar
    64    28    36   ar
    65    29    30    1
    66    29    70    1
    67    30    39    1
    68    30    44    1
    69    30    47    1
    70    31    36   ar
    71    31    38   ar
    72    32    42   ar
    73    33    48   ar
    74    34    37    1
    75    34    72    1
    76    34    73    1
    77    35    43    2
    78    36    74    1
    79    37    75    1
    80    37    76    1
    81    38    42   ar
    82    39    43    1
    83    39    77    1
    84    39    78    1
    85    40    80    1
    86    40    81    1
    87    40    82    1
    88    41    50   ar
    89    41    83    1
    90    42    84    1
    91    43    53    1
    92    44    52    1
    93    44    86    1
    94    44    87    1
    95    45    49    1
    96    45    88    1
    97    45    89    1
    98    47    49    2
    99    47    90    1
   100    48    51   ar
   101    49    91    1
   102    50    51   ar
   103    52    92    1
   104    52    93    1
   105    52    94    1
   106    54    96    1
   107    54    97    1
   108    54    98    1
   109    55    99    1
   110    55   100    1
   111    55   101    1
   112    56   102    1
   113    56   103    1
   114    56   104    1
   115    57   105    1
   116    57   106    1
   117    57   107    1
