@<TRIPOS>MOLECULE
IMPHY011455
 39 40 0 0 0
SMALL
GASTEIGER

@<TRIPOS>ATOM
      1 C           2.8660   -0.7500    0.0000 C.3     1  UNL1       -0.0287
      2 C           3.7320   -0.2500    0.0000 C.3     1  UNL1        0.0017
      3 C           2.0000   -0.2500    0.0000 C.3     1  UNL1       -0.0486
      4 C           2.8660    1.2500    0.0000 C.3     1  UNL1       -0.0221
      5 C           3.7320    0.7500    0.0000 C.2     1  UNL1       -0.0632
      6 C           2.0000    0.7500    0.0000 C.3     1  UNL1       -0.0465
      7 C           2.8660   -1.7500    0.0000 C.3     1  UNL1       -0.0431
      8 C           4.6260   -0.7847    0.0000 C.2     1  UNL1       -0.0774
      9 C           4.6260    1.2847    0.0000 C.2     1  UNL1       -0.0800
     10 C           2.8660    2.2500    0.0000 C.3     1  UNL1       -0.0587
     11 C           5.5321   -0.2708    0.0000 C.2     1  UNL1       -0.0722
     12 C           5.5321    0.7708    0.0000 C.3     1  UNL1       -0.0135
     13 C           2.0000   -2.2500    0.0000 C.3     1  UNL1       -0.0624
     14 C           3.7320   -2.2500    0.0000 C.3     1  UNL1       -0.0624
     15 C           6.3961   -0.7742    0.0000 C.3     1  UNL1       -0.0435
     16 H           2.1299   -1.1750    0.0000 H       1  UNL1        0.0312
     17 H           3.7255   -1.1000    0.0000 H       1  UNL1        0.0391
     18 H           1.3894   -0.1423    0.0000 H       1  UNL1        0.0268
     19 H           1.7880   -0.8326    0.0000 H       1  UNL1        0.0268
     20 H           3.4030    1.5600    0.0000 H       1  UNL1        0.0343
     21 H           1.7880    1.3326    0.0000 H       1  UNL1        0.0271
     22 H           1.3894    0.6423    0.0000 H       1  UNL1        0.0271
     23 H           2.8660   -2.3700    0.0000 H       1  UNL1        0.0298
     24 H           4.6188   -1.4046    0.0000 H       1  UNL1        0.0578
     25 H           4.6188    1.9046    0.0000 H       1  UNL1        0.0575
     26 H           3.4860    2.2500    0.0000 H       1  UNL1        0.0235
     27 H           2.8660    2.8700    0.0000 H       1  UNL1        0.0235
     28 H           2.2460    2.2500    0.0000 H       1  UNL1        0.0235
     29 H           6.1429    0.6647    0.0000 H       1  UNL1        0.0352
     30 H           5.7411    1.3545    0.0000 H       1  UNL1        0.0352
     31 H           1.6900   -1.7131    0.0000 H       1  UNL1        0.0232
     32 H           1.4631   -2.5600    0.0000 H       1  UNL1        0.0232
     33 H           2.3100   -2.7869    0.0000 H       1  UNL1        0.0232
     34 H           3.4220   -2.7869    0.0000 H       1  UNL1        0.0232
     35 H           4.2690   -2.5600    0.0000 H       1  UNL1        0.0232
     36 H           4.0420   -1.7131    0.0000 H       1  UNL1        0.0232
     37 H           6.0841   -1.3099    0.0000 H       1  UNL1        0.0274
     38 H           6.9319   -1.0862    0.0000 H       1  UNL1        0.0274
     39 H           6.7082   -0.2384    0.0000 H       1  UNL1        0.0274
@<TRIPOS>BOND
     1     1     2    1
     2     1     3    1
     3     1     7    1
     4     1    16    1
     5     2     5    1
     6     2     8    1
     7     2    17    1
     8     3     6    1
     9     3    18    1
    10     3    19    1
    11     4     5    1
    12     4     6    1
    13     4    10    1
    14     4    20    1
    15     5     9    2
    16     6    21    1
    17     6    22    1
    18     7    13    1
    19     7    14    1
    20     7    23    1
    21     8    11    2
    22     8    24    1
    23     9    12    1
    24     9    25    1
    25    10    26    1
    26    10    27    1
    27    10    28    1
    28    11    12    1
    29    11    15    1
    30    12    29    1
    31    12    30    1
    32    13    31    1
    33    13    32    1
    34    13    33    1
    35    14    34    1
    36    14    35    1
    37    14    36    1
    38    15    37    1
    39    15    38    1
    40    15    39    1
