@<TRIPOS>MOLECULE
IMPHY014043
 72 76 0 0 0
SMALL
GASTEIGER

@<TRIPOS>ATOM
      1 O           6.8671   -2.0356    0.0000 O.3     1  UNL1       -0.3399
      2 O           7.7331    0.4644    0.0000 O.3     1  UNL1       -0.3609
      3 O           5.1350   -2.0356    0.0000 O.3     1  UNL1       -0.3405
      4 O           5.1350   -1.0356    0.0000 O.3     1  UNL1       -0.3865
      5 O           5.1350    0.9644    0.0000 O.3     1  UNL1       -0.3865
      6 O           6.8671   -4.0357    0.0000 O.3     1  UNL1       -0.3841
      7 O           5.1350   -5.0357    0.0000 O.3     1  UNL1       -0.3864
      8 O           3.4030   -4.0357    0.0000 O.3     1  UNL1       -0.3865
      9 O           6.0010    2.4644    0.0000 O.3     1  UNL1       -0.3924
     10 O           9.4491    0.5059    0.0000 O.2     1  UNL1       -0.4540
     11 O           2.5369   -2.5356    0.0000 O.3     1  UNL1       -0.3924
     12 O           7.7331   -2.5356    0.0000 O.3     1  UNL1       -0.5062
     13 O          11.1972   -2.5356    0.0000 O.3     1  UNL1       -0.5058
     14 O          12.1014   -1.0388    0.0000 O.2     1  UNL1       -0.2869
     15 O          10.3317    5.0336    0.0000 O.3     1  UNL1       -0.5068
     16 C           6.8671   -1.0356    0.0000 C.3     1  UNL1        0.1204
     17 C           6.0010   -0.5356    0.0000 C.3     1  UNL1        0.1124
     18 C           7.7331   -0.5356    0.0000 C.3     1  UNL1        0.1197
     19 C           6.0010    0.4644    0.0000 C.3     1  UNL1        0.1118
     20 C           6.8671    0.9644    0.0000 C.3     1  UNL1        0.1108
     21 C           6.0010   -2.5356    0.0000 C.3     1  UNL1        0.1884
     22 C           6.0010   -3.5356    0.0000 C.3     1  UNL1        0.1341
     23 C           5.1350   -4.0357    0.0000 C.3     1  UNL1        0.1141
     24 C           4.2690   -3.5356    0.0000 C.3     1  UNL1        0.1119
     25 C           4.2690   -2.5356    0.0000 C.3     1  UNL1        0.1130
     26 C           8.5991   -1.0356    0.0000 C.ar    1  UNL1        0.0682
     27 C           6.8671    1.9644    0.0000 C.3     1  UNL1        0.0729
     28 C           3.4030   -2.0356    0.0000 C.3     1  UNL1        0.0730
     29 C           9.4651   -0.5356    0.0000 C.ar    1  UNL1        0.1520
     30 C           8.5991   -2.0356    0.0000 C.ar    1  UNL1        0.1296
     31 C          10.3312   -1.0356    0.0000 C.ar    1  UNL1        0.1058
     32 C           9.4651   -2.5356    0.0000 C.ar    1  UNL1        0.0226
     33 C          10.3312   -2.0356    0.0000 C.ar    1  UNL1        0.1347
     34 C          11.2412   -0.5288    0.0000 C.ar    1  UNL1        0.1966
     35 C          10.3471    1.0336    0.0000 C.ar    1  UNL1        0.1392
     36 C          11.2492    0.5128    0.0000 C.ar    1  UNL1        0.0288
     37 C          10.3433    2.0336    0.0000 C.ar    1  UNL1        0.0176
     38 C          11.2074    2.5369    0.0000 C.ar    1  UNL1       -0.0476
     39 C           9.4753    2.5303    0.0000 C.ar    1  UNL1       -0.0476
     40 C          11.2035    3.5369    0.0000 C.ar    1  UNL1       -0.0195
     41 C           9.4715    3.5303    0.0000 C.ar    1  UNL1       -0.0195
     42 C          10.3356    4.0336    0.0000 C.ar    1  UNL1        0.1169
     43 H           7.4040   -1.3456    0.0000 H       1  UNL1        0.0653
     44 H           5.4641   -0.2256    0.0000 H       1  UNL1        0.0647
     45 H           8.4692   -0.1106    0.0000 H       1  UNL1        0.0676
     46 H           6.0010    1.0844    0.0000 H       1  UNL1        0.0647
     47 H           7.4040    1.2744    0.0000 H       1  UNL1        0.0646
     48 H           6.0010   -1.9156    0.0000 H       1  UNL1        0.0938
     49 H           6.0010   -4.1556    0.0000 H       1  UNL1        0.0671
     50 H           4.5981   -4.3456    0.0000 H       1  UNL1        0.0648
     51 H           4.2690   -4.1556    0.0000 H       1  UNL1        0.0647
     52 H           4.2690   -1.9156    0.0000 H       1  UNL1        0.0647
     53 H           7.4776    1.8567    0.0000 H       1  UNL1        0.0584
     54 H           7.0791    2.5470    0.0000 H       1  UNL1        0.0584
     55 H           4.5981   -0.7256    0.0000 H       1  UNL1        0.2100
     56 H           3.8015   -1.5607    0.0000 H       1  UNL1        0.0584
     57 H           3.0044   -1.5607    0.0000 H       1  UNL1        0.0584
     58 H           4.5981    0.6544    0.0000 H       1  UNL1        0.2100
     59 H           7.4040   -3.7256    0.0000 H       1  UNL1        0.2101
     60 H           5.6720   -5.3456    0.0000 H       1  UNL1        0.2100
     61 H           3.4030   -4.6556    0.0000 H       1  UNL1        0.2100
     62 H           9.4651   -3.1556    0.0000 H       1  UNL1        0.0691
     63 H           6.0010    3.0844    0.0000 H       1  UNL1        0.2095
     64 H           2.0000   -2.2256    0.0000 H       1  UNL1        0.2095
     65 H           7.7331   -3.1556    0.0000 H       1  UNL1        0.2922
     66 H          11.7873    0.8207    0.0000 H       1  UNL1        0.0693
     67 H          11.1972   -3.1556    0.0000 H       1  UNL1        0.2922
     68 H          11.7455    2.2290    0.0000 H       1  UNL1        0.0626
     69 H           8.9396    2.2182    0.0000 H       1  UNL1        0.0626
     70 H          11.7392    3.8490    0.0000 H       1  UNL1        0.0654
     71 H           8.9333    3.8382    0.0000 H       1  UNL1        0.0654
     72 H          10.8674    5.3456    0.0000 H       1  UNL1        0.2921
@<TRIPOS>BOND
     1    16     1    1
     2    21     1    1
     3     2    18    1
     4     2    20    1
     5     3    21    1
     6     3    25    1
     7    17     4    1
     8     4    55    1
     9    19     5    1
    10     5    58    1
    11    22     6    1
    12     6    59    1
    13    23     7    1
    14     7    60    1
    15    24     8    1
    16     8    61    1
    17     9    27    1
    18     9    63    1
    19    10    29   ar
    20    10    35   ar
    21    11    28    1
    22    11    64    1
    23    12    30    1
    24    12    65    1
    25    13    33    1
    26    13    67    1
    27    14    34    2
    28    15    42    1
    29    15    72    1
    30    16    17    1
    31    16    18    1
    32    16    43    1
    33    17    19    1
    34    17    44    1
    35    18    26    1
    36    18    45    1
    37    19    20    1
    38    19    46    1
    39    20    27    1
    40    20    47    1
    41    21    22    1
    42    21    48    1
    43    22    23    1
    44    22    49    1
    45    23    24    1
    46    23    50    1
    47    24    25    1
    48    24    51    1
    49    25    28    1
    50    25    52    1
    51    26    29   ar
    52    26    30   ar
    53    27    53    1
    54    27    54    1
    55    28    56    1
    56    28    57    1
    57    29    31   ar
    58    30    32   ar
    59    31    33   ar
    60    31    34   ar
    61    32    33   ar
    62    32    62    1
    63    34    36   ar
    64    35    36   ar
    65    35    37    1
    66    36    66    1
    67    37    38   ar
    68    37    39   ar
    69    38    40   ar
    70    38    68    1
    71    39    41   ar
    72    39    69    1
    73    40    42   ar
    74    40    70    1
    75    41    42   ar
    76    41    71    1
