@<TRIPOS>MOLECULE
IMPHY000907
 97 103 0 0 0
SMALL
GASTEIGER

@<TRIPOS>ATOM
      1 O           6.0774   -1.6218    0.0000 O.3     1  UNL1       -0.4547
      2 O           7.5950   -2.7907    0.0000 O.3     1  UNL1       -0.3790
      3 O           9.4176    0.9712    0.0000 O.3     1  UNL1       -0.3791
      4 O           5.7012    0.7197    0.0000 O.3     1  UNL1       -0.4544
      5 O           7.2924    2.2831    0.0000 O.3     1  UNL1       -0.3822
      6 O           5.2883   -1.1805    0.0000 O.3     1  UNL1       -0.3851
      7 O           5.3000    1.4291    0.0000 O.3     1  UNL1       -0.3741
      8 O          11.1685   -1.2990    0.0000 O.3     1  UNL1       -0.3910
      9 O          10.2836   -3.2640    0.0000 O.3     1  UNL1       -0.3823
     10 O           6.2735   -3.3427    0.0000 O.2     1  UNL1       -0.2511
     11 O           4.4734   -0.5020    0.0000 O.2     1  UNL1       -0.2449
     12 O           1.9133    3.2987    0.0000 O.3     1  UNL1       -0.4951
     13 N          10.6129   -0.8579    0.0000 N.3     1  UNL1       -0.2978
     14 C           8.6663   -0.4626    0.0000 C.3     1  UNL1        0.0223
     15 C           8.6663   -1.3302    0.0000 C.3     1  UNL1        0.0067
     16 C           7.9880    0.0783    0.0000 C.3     1  UNL1       -0.0184
     17 C           9.6682   -0.5687    0.0000 C.3     1  UNL1        0.0280
     18 C           7.1422   -1.6781    0.0000 C.3     1  UNL1        0.0446
     19 C           7.1422   -0.1148    0.0000 C.3     1  UNL1        0.0454
     20 C           6.7657   -0.8964    0.0000 C.3     1  UNL1        0.1547
     21 C           7.9880   -1.8711    0.0000 C.3     1  UNL1        0.0705
     22 C           9.4176   -1.7640    0.0000 C.3     1  UNL1        0.0386
     23 C           9.4176   -0.0288    0.0000 C.3     1  UNL1        0.0683
     24 C           8.0658    0.9424    0.0000 C.3     1  UNL1       -0.0140
     25 C           7.2680    1.2834    0.0000 C.3     1  UNL1        0.1318
     26 C           6.6972    0.6300    0.0000 C.3     1  UNL1        0.1412
     27 C           6.1208   -0.6265    0.0000 C.3     1  UNL1        0.1244
     28 C          10.6129   -1.6098    0.0000 C.3     1  UNL1        0.0097
     29 C          10.1690   -1.3302    0.0000 C.3     1  UNL1        0.0668
     30 C           6.1208    0.8580    0.0000 C.3     1  UNL1        0.1199
     31 C          10.1690   -0.4626    0.0000 C.3     1  UNL1        0.0008
     32 C           9.4176   -2.7640    0.0000 C.3     1  UNL1        0.0568
     33 C          11.4169   -0.2632    0.0000 C.3     1  UNL1       -0.0036
     34 C           5.6786   -2.5389    0.0000 C.2     1  UNL1        0.3046
     35 C           8.1948   -3.5908    0.0000 C.3     1  UNL1        0.0368
     36 C          12.3339   -0.6621    0.0000 C.3     1  UNL1       -0.0523
     37 C          10.2836    1.4712    0.0000 C.3     1  UNL1        0.0368
     38 C           4.7346    0.4632    0.0000 C.2     1  UNL1        0.3395
     39 C           5.3841    2.4256    0.0000 C.3     1  UNL1        0.0370
     40 C           4.6851   -2.6521    0.0000 C.3     1  UNL1        0.0333
     41 C          10.2836   -4.2640    0.0000 C.3     1  UNL1        0.0365
     42 C           4.0293    1.1721    0.0000 C.ar    1  UNL1        0.0592
     43 C           3.0627    0.9157    0.0000 C.ar    1  UNL1       -0.0443
     44 C           4.2905    2.1374    0.0000 C.ar    1  UNL1       -0.0443
     45 C           2.3574    1.6246    0.0000 C.ar    1  UNL1       -0.0192
     46 C           3.5852    2.8462    0.0000 C.ar    1  UNL1       -0.0192
     47 C           2.6186    2.5898    0.0000 C.ar    1  UNL1        0.1201
     48 C           2.1745    4.2640    0.0000 C.3     1  UNL1        0.0788
     49 H           8.7298   -2.1778    0.0000 H       1  UNL1        0.0340
     50 H           8.7696    0.4124    0.0000 H       1  UNL1        0.0314
     51 H           9.7922    0.0388    0.0000 H       1  UNL1        0.0474
     52 H           6.6122   -2.3426    0.0000 H       1  UNL1        0.0381
     53 H           6.2930   -0.1529    0.0000 H       1  UNL1        0.0380
     54 H           8.1884   -2.4578    0.0000 H       1  UNL1        0.0603
     55 H           8.8807    0.2812    0.0000 H       1  UNL1        0.0603
     56 H           8.2485    1.5348    0.0000 H       1  UNL1        0.0298
     57 H           8.6741    0.8226    0.0000 H       1  UNL1        0.0298
     58 H           6.4664    1.2054    0.0000 H       1  UNL1        0.0768
     59 H           5.5743   -0.3337    0.0000 H       1  UNL1        0.0661
     60 H          11.2324   -1.5832    0.0000 H       1  UNL1        0.0434
     61 H          10.6659   -2.2275    0.0000 H       1  UNL1        0.0434
     62 H          10.3388   -1.9265    0.0000 H       1  UNL1        0.0601
     63 H           6.1990    1.4731    0.0000 H       1  UNL1        0.0653
     64 H          10.3810    0.1200    0.0000 H       1  UNL1        0.0315
     65 H          10.7795   -0.5703    0.0000 H       1  UNL1        0.0315
     66 H           9.2056   -3.3466    0.0000 H       1  UNL1        0.0566
     67 H           8.8070   -2.6563    0.0000 H       1  UNL1        0.0566
     68 H          10.9673    0.1637    0.0000 H       1  UNL1        0.0424
     69 H          11.7592    0.2538    0.0000 H       1  UNL1        0.0424
     70 H           6.7632    2.6061    0.0000 H       1  UNL1        0.2104
     71 H           5.3277   -1.7993    0.0000 H       1  UNL1        0.2101
     72 H          11.4951   -1.8260    0.0000 H       1  UNL1        0.2098
     73 H           8.6909   -3.2189    0.0000 H       1  UNL1        0.0524
     74 H           8.5667   -4.0869    0.0000 H       1  UNL1        0.0524
     75 H           7.6987   -3.9627    0.0000 H       1  UNL1        0.0524
     76 H          12.5812   -0.0936    0.0000 H       1  UNL1        0.0242
     77 H          12.9024   -0.9094    0.0000 H       1  UNL1        0.0242
     78 H          12.0866   -1.2306    0.0000 H       1  UNL1        0.0242
     79 H           9.9736    2.0081    0.0000 H       1  UNL1        0.0524
     80 H          10.8206    1.7812    0.0000 H       1  UNL1        0.0524
     81 H          10.5936    0.9342    0.0000 H       1  UNL1        0.0524
     82 H           4.7663    2.4778    0.0000 H       1  UNL1        0.0524
     83 H           5.4363    3.0434    0.0000 H       1  UNL1        0.0524
     84 H           6.0019    2.3734    0.0000 H       1  UNL1        0.0524
     85 H           4.7553   -3.2681    0.0000 H       1  UNL1        0.0342
     86 H           4.0691   -2.7223    0.0000 H       1  UNL1        0.0342
     87 H           4.6149   -2.0361    0.0000 H       1  UNL1        0.0342
     88 H          10.9036   -4.2640    0.0000 H       1  UNL1        0.0523
     89 H          10.2836   -4.8840    0.0000 H       1  UNL1        0.0523
     90 H           9.6636   -4.2640    0.0000 H       1  UNL1        0.0523
     91 H           2.9008    0.3172    0.0000 H       1  UNL1        0.0627
     92 H           4.8898    2.2964    0.0000 H       1  UNL1        0.0627
     93 H           1.7581    1.4656    0.0000 H       1  UNL1        0.0654
     94 H           3.7471    3.4447    0.0000 H       1  UNL1        0.0654
     95 H           1.5760    4.4260    0.0000 H       1  UNL1        0.0660
     96 H           2.3364    4.8625    0.0000 H       1  UNL1        0.0660
     97 H           2.7730    4.1020    0.0000 H       1  UNL1        0.0660
@<TRIPOS>BOND
     1    20     1    1
     2     1    34    1
     3    21     2    1
     4     2    35    1
     5    23     3    1
     6     3    37    1
     7    26     4    1
     8     4    38    1
     9    25     5    1
    10     5    70    1
    11    27     6    1
    12     6    71    1
    13    30     7    1
    14     7    39    1
    15    29     8    1
    16     8    72    1
    17     9    32    1
    18     9    41    1
    19    10    34    2
    20    11    38    2
    21    12    47    1
    22    12    48    1
    23    13    17    1
    24    13    28    1
    25    13    33    1
    26    14    15    1
    27    14    16    1
    28    14    17    1
    29    14    23    1
    30    15    21    1
    31    15    22    1
    32    15    49    1
    33    16    19    1
    34    16    24    1
    35    16    50    1
    36    17    18    1
    37    17    51    1
    38    18    20    1
    39    18    21    1
    40    18    52    1
    41    19    20    1
    42    19    26    1
    43    19    53    1
    44    20    27    1
    45    21    54    1
    46    22    28    1
    47    22    29    1
    48    22    32    1
    49    23    31    1
    50    23    55    1
    51    24    25    1
    52    24    56    1
    53    24    57    1
    54    25    26    1
    55    25    30    1
    56    26    58    1
    57    27    30    1
    58    27    59    1
    59    28    60    1
    60    28    61    1
    61    29    31    1
    62    29    62    1
    63    30    63    1
    64    31    64    1
    65    31    65    1
    66    32    66    1
    67    32    67    1
    68    33    36    1
    69    33    68    1
    70    33    69    1
    71    34    40    1
    72    35    73    1
    73    35    74    1
    74    35    75    1
    75    36    76    1
    76    36    77    1
    77    36    78    1
    78    37    79    1
    79    37    80    1
    80    37    81    1
    81    38    42    1
    82    39    82    1
    83    39    83    1
    84    39    84    1
    85    40    85    1
    86    40    86    1
    87    40    87    1
    88    41    88    1
    89    41    89    1
    90    41    90    1
    91    42    43   ar
    92    42    44   ar
    93    43    45   ar
    94    43    91    1
    95    44    46   ar
    96    44    92    1
    97    45    47   ar
    98    45    93    1
    99    46    47   ar
   100    46    94    1
   101    48    95    1
   102    48    96    1
   103    48    97    1
