@<TRIPOS>MOLECULE
IMPHY001620
 55 59 0 0 0
SMALL
GASTEIGER

@<TRIPOS>ATOM
      1 O           5.5009    2.9742    0.0000 O.3     1  UNL1       -0.4604
      2 O           6.3660   -1.4890    0.0000 O.3     1  UNL1       -0.4560
      3 O           3.5000    2.4160    0.0000 O.3     1  UNL1       -0.4641
      4 O           7.6022   -0.9125    0.0000 O.2     1  UNL1       -0.2502
      5 O           3.9695    3.8368    0.0000 O.2     1  UNL1       -0.2505
      6 O           4.2782   -3.8368    0.0000 O.2     1  UNL1       -0.4706
      7 O           2.0000    1.5500    0.0000 O.2     1  UNL1       -0.2512
      8 C           5.0000    1.5498    0.0000 C.3     1  UNL1        0.0585
      9 C           5.0000    0.5499    0.0000 C.3     1  UNL1       -0.0120
     10 C           5.8660    0.0499    0.0000 C.3     1  UNL1        0.0776
     11 C           5.8660    2.0498    0.0000 C.3     1  UNL1        0.1131
     12 C           4.1061    2.0845    0.0000 C.3     1  UNL1        0.0688
     13 C           6.7320    0.5499    0.0000 C.3     1  UNL1       -0.0243
     14 C           6.7320    1.5498    0.0000 C.3     1  UNL1       -0.0114
     15 C           4.1061    0.0152    0.0000 C.3     1  UNL1       -0.0484
     16 C           5.0570   -0.5379    0.0000 C.3     1  UNL1        0.0050
     17 C           3.2000    1.5707    0.0000 C.3     1  UNL1       -0.0393
     18 C           4.0000    1.5500    0.0000 C.3     1  UNL1        0.1025
     19 C           3.2000    0.5290    0.0000 C.3     1  UNL1       -0.0520
     20 C           6.6750   -0.5379    0.0000 C.2     1  UNL1        0.3146
     21 C           4.5073    2.9937    0.0000 C.2     1  UNL1        0.3113
     22 C           5.3660   -1.4890    0.0000 C.3     1  UNL1        0.1320
     23 C           7.7169    0.7235    0.0000 C.3     1  UNL1       -0.0613
     24 C           4.7782   -2.2980    0.0000 C.ar    1  UNL1        0.0304
     25 C           2.5000    2.4160    0.0000 C.2     1  UNL1        0.3040
     26 C           3.7782   -2.2980    0.0000 C.ar    1  UNL1       -0.0172
     27 C           5.0873   -3.2491    0.0000 C.ar    1  UNL1        0.0983
     28 C           3.4692   -3.2491    0.0000 C.ar    1  UNL1        0.0921
     29 C           2.0000    3.2820    0.0000 C.3     1  UNL1        0.0332
     30 H           5.0066   -0.3001    0.0000 H       1  UNL1        0.0319
     31 H           6.5097    2.6050    0.0000 H       1  UNL1        0.0741
     32 H           3.4756    2.6547    0.0000 H       1  UNL1        0.0421
     33 H           7.0228   -0.2489    0.0000 H       1  UNL1        0.0310
     34 H           7.3426    1.4422    0.0000 H       1  UNL1        0.0304
     35 H           6.9441    2.1325    0.0000 H       1  UNL1        0.0304
     36 H           3.7124   -0.4638    0.0000 H       1  UNL1        0.0268
     37 H           4.5107   -0.4546    0.0000 H       1  UNL1        0.0268
     38 H           4.7470   -0.0010    0.0000 H       1  UNL1        0.0315
     39 H           4.4906   -0.7901    0.0000 H       1  UNL1        0.0315
     40 H           2.9909    2.1544    0.0000 H       1  UNL1        0.0273
     41 H           2.5891    1.4646    0.0000 H       1  UNL1        0.0273
     42 H           3.4174    1.3380    0.0000 H       1  UNL1        0.0704
     43 H           4.1076    0.9394    0.0000 H       1  UNL1        0.0704
     44 H           2.5891    0.6351    0.0000 H       1  UNL1        0.0266
     45 H           2.9909   -0.0547    0.0000 H       1  UNL1        0.0266
     46 H           5.7519   -2.2463    0.0000 H       1  UNL1        0.0786
     47 H           7.8245    0.1129    0.0000 H       1  UNL1        0.0233
     48 H           8.3274    0.8312    0.0000 H       1  UNL1        0.0233
     49 H           7.6092    1.3341    0.0000 H       1  UNL1        0.0233
     50 H           3.4138   -1.7964    0.0000 H       1  UNL1        0.0653
     51 H           5.6769   -3.4406    0.0000 H       1  UNL1        0.1033
     52 H           2.8796   -3.4406    0.0000 H       1  UNL1        0.1029
     53 H           2.5370    3.5920    0.0000 H       1  UNL1        0.0342
     54 H           1.6901    3.8189    0.0000 H       1  UNL1        0.0342
     55 H           1.4631    2.9720    0.0000 H       1  UNL1        0.0342
@<TRIPOS>BOND
     1     1    11    1
     2     1    21    1
     3     2    20    1
     4     2    22    1
     5     3    18    1
     6     3    25    1
     7     4    20    2
     8     5    21    2
     9     6    27   ar
    10     6    28   ar
    11     7    25    2
    12     8     9    1
    13     8    11    1
    14     8    12    1
    15     8    18    1
    16     9    10    1
    17     9    15    1
    18     9    30    1
    19    10    13    1
    20    10    16    1
    21    10    20    1
    22    11    14    1
    23    11    31    1
    24    12    17    1
    25    12    21    1
    26    12    32    1
    27    13    14    1
    28    13    23    1
    29    13    33    1
    30    14    34    1
    31    14    35    1
    32    15    19    1
    33    15    36    1
    34    15    37    1
    35    16    22    1
    36    16    38    1
    37    16    39    1
    38    17    19    1
    39    17    40    1
    40    17    41    1
    41    18    42    1
    42    18    43    1
    43    19    44    1
    44    19    45    1
    45    22    24    1
    46    22    46    1
    47    23    47    1
    48    23    48    1
    49    23    49    1
    50    24    26   ar
    51    24    27   ar
    52    25    29    1
    53    26    28   ar
    54    26    50    1
    55    27    51    1
    56    28    52    1
    57    29    53    1
    58    29    54    1
    59    29    55    1
