@<TRIPOS>MOLECULE
IMPHY007134
 19 18 0 0 0
SMALL
GASTEIGER

@<TRIPOS>ATOM
      1 S           4.5981    0.2500    0.0000 S.O     1  UNL1        0.0854
      2 S           5.4641    0.7500    0.0000 S.3     1  UNL1       -0.0569
      3 O           4.5981   -0.7500    0.0000 O.2     1  UNL1       -0.2456
      4 C           3.7320    0.7500    0.0000 C.3     1  UNL1        0.0514
      5 C           6.3301    0.2500    0.0000 C.3     1  UNL1        0.0240
      6 C           2.8660    0.2500    0.0000 C.2     1  UNL1       -0.0782
      7 C           7.1962    0.7500    0.0000 C.2     1  UNL1       -0.0805
      8 C           2.0000    0.7500    0.0000 C.2     1  UNL1       -0.1018
      9 C           8.0622    0.2500    0.0000 C.2     1  UNL1       -0.1018
     10 H           4.1306    1.2250    0.0000 H       1  UNL1        0.0452
     11 H           3.3335    1.2250    0.0000 H       1  UNL1        0.0452
     12 H           5.9316   -0.2249    0.0000 H       1  UNL1        0.0428
     13 H           6.7287   -0.2249    0.0000 H       1  UNL1        0.0428
     14 H           2.8660   -0.3700    0.0000 H       1  UNL1        0.0575
     15 H           7.1962    1.3700    0.0000 H       1  UNL1        0.0575
     16 H           2.0000    1.3700    0.0000 H       1  UNL1        0.0532
     17 H           1.4631    0.4400    0.0000 H       1  UNL1        0.0532
     18 H           8.0622   -0.3700    0.0000 H       1  UNL1        0.0532
     19 H           8.5991    0.5600    0.0000 H       1  UNL1        0.0532
@<TRIPOS>BOND
     1     1     2    1
     2     1     3    2
     3     1     4    1
     4     2     5    1
     5     4     6    1
     6     4    10    1
     7     4    11    1
     8     5     7    1
     9     5    12    1
    10     5    13    1
    11     6     8    2
    12     6    14    1
    13     7     9    2
    14     7    15    1
    15     8    16    1
    16     8    17    1
    17     9    18    1
    18     9    19    1
