@<TRIPOS>MOLECULE
IMPHY000546
 41 42 0 0 0
SMALL
GASTEIGER

@<TRIPOS>ATOM
      1 O           4.3100    1.0987    0.0000 O.3     1  UNL1       -0.3842
      2 O           2.3100   -0.6333    0.0000 O.3     1  UNL1       -0.3907
      3 C           6.5420   -0.7673    0.0000 C.3     1  UNL1       -0.0254
      4 C           6.5420    0.2327    0.0000 C.3     1  UNL1       -0.0119
      5 C           5.6760   -1.2673    0.0000 C.3     1  UNL1       -0.0442
      6 C           5.6760    0.7327    0.0000 C.3     1  UNL1       -0.0131
      7 C           4.8100    0.2327    0.0000 C.3     1  UNL1        0.0894
      8 C           7.4360   -1.3020    0.0000 C.3     1  UNL1       -0.0468
      9 C           4.8100   -0.7673    0.0000 C.3     1  UNL1       -0.0195
     10 C           7.4360    0.7674    0.0000 C.2     1  UNL1       -0.0729
     11 C           8.3421   -0.7881    0.0000 C.3     1  UNL1       -0.0489
     12 C           6.5420   -1.7673    0.0000 C.3     1  UNL1       -0.0590
     13 C           8.3421    0.2535    0.0000 C.3     1  UNL1       -0.0317
     14 C           3.8100    0.2327    0.0000 C.2     1  UNL1       -0.0204
     15 C           7.4244    1.7673    0.0000 C.2     1  UNL1       -0.0992
     16 C           3.3100   -0.6333    0.0000 C.3     1  UNL1        0.0677
     17 C           3.3100    1.0987    0.0000 C.2     1  UNL1       -0.0946
     18 H           6.5355    1.0827    0.0000 H       1  UNL1        0.0352
     19 H           5.2775   -1.7422    0.0000 H       1  UNL1        0.0272
     20 H           6.0746   -1.7422    0.0000 H       1  UNL1        0.0272
     21 H           6.0746    1.2076    0.0000 H       1  UNL1        0.0302
     22 H           5.2775    1.2076    0.0000 H       1  UNL1        0.0302
     23 H           7.0314   -1.7718    0.0000 H       1  UNL1        0.0271
     24 H           7.8296   -1.7810    0.0000 H       1  UNL1        0.0271
     25 H           4.1994   -0.6596    0.0000 H       1  UNL1        0.0296
     26 H           4.5980   -1.3499    0.0000 H       1  UNL1        0.0296
     27 H           8.5511   -1.3718    0.0000 H       1  UNL1        0.0268
     28 H           8.9529   -0.6820    0.0000 H       1  UNL1        0.0268
     29 H           5.9220   -1.7673    0.0000 H       1  UNL1        0.0235
     30 H           6.5420   -2.3873    0.0000 H       1  UNL1        0.0235
     31 H           7.1620   -1.7673    0.0000 H       1  UNL1        0.0235
     32 H           8.9529    0.1474    0.0000 H       1  UNL1        0.0310
     33 H           8.5511    0.8372    0.0000 H       1  UNL1        0.0310
     34 H           4.6200    1.6357    0.0000 H       1  UNL1        0.2106
     35 H           7.9577    2.0835    0.0000 H       1  UNL1        0.0534
     36 H           6.8839    2.0711    0.0000 H       1  UNL1        0.0534
     37 H           3.2023   -1.2439    0.0000 H       1  UNL1        0.0605
     38 H           3.8926   -0.8454    0.0000 H       1  UNL1        0.0605
     39 H           3.6200    1.6357    0.0000 H       1  UNL1        0.0536
     40 H           2.6900    1.0987    0.0000 H       1  UNL1        0.0536
     41 H           2.0000   -1.1703    0.0000 H       1  UNL1        0.2098
@<TRIPOS>BOND
     1     7     1    1
     2     1    34    1
     3     2    16    1
     4     2    41    1
     5     3     4    1
     6     3     5    1
     7     3     8    1
     8     3    12    1
     9     4     6    1
    10     4    10    1
    11     4    18    1
    12     5     9    1
    13     5    19    1
    14     5    20    1
    15     6     7    1
    16     6    21    1
    17     6    22    1
    18     7     9    1
    19     7    14    1
    20     8    11    1
    21     8    23    1
    22     8    24    1
    23     9    25    1
    24     9    26    1
    25    10    13    1
    26    10    15    2
    27    11    13    1
    28    11    27    1
    29    11    28    1
    30    12    29    1
    31    12    30    1
    32    12    31    1
    33    13    32    1
    34    13    33    1
    35    14    16    1
    36    14    17    2
    37    15    35    1
    38    15    36    1
    39    16    37    1
    40    16    38    1
    41    17    39    1
    42    17    40    1
