@<TRIPOS>MOLECULE
IMPHY009279
 78 83 0 0 0
SMALL
GASTEIGER

@<TRIPOS>ATOM
      1 O           5.7155   -4.2234    0.0000 O.3     1  UNL1       -0.4566
      2 O           3.8802    5.2322    0.0000 O.3     1  UNL1       -0.3912
      3 O           3.9059   -5.2364    0.0000 O.3     1  UNL1       -0.3875
      4 O           6.5608   -2.6593    0.0000 O.2     1  UNL1       -0.2497
      5 C           4.8001    0.3744    0.0000 C.3     1  UNL1       -0.0159
      6 C           3.8937    1.9871    0.0000 C.3     1  UNL1       -0.0218
      7 C           3.9021    0.9021    0.0000 C.3     1  UNL1       -0.0107
      8 C           4.7840   -0.6671    0.0000 C.3     1  UNL1       -0.0011
      9 C           4.8333    2.5296    0.0000 C.3     1  UNL1       -0.0276
     10 C           5.7520    0.8950    0.0000 C.3     1  UNL1       -0.0460
     11 C           5.7688    1.9799    0.0000 C.3     1  UNL1       -0.0486
     12 C           4.8508    3.6596    0.0000 C.3     1  UNL1       -0.0056
     13 C           4.7840   -2.6671    0.0000 C.3     1  UNL1        0.1283
     14 C           3.9180   -1.1671    0.0000 C.2     1  UNL1       -0.0408
     15 C           5.6501   -1.1671    0.0000 C.3     1  UNL1       -0.0417
     16 C           2.9064    2.5370    0.0000 C.3     1  UNL1       -0.0444
     17 C           3.9180   -2.1671    0.0000 C.2     1  UNL1       -0.0450
     18 C           5.6501   -2.1671    0.0000 C.3     1  UNL1       -0.0291
     19 C           5.7836    0.1932    0.0000 C.3     1  UNL1       -0.0582
     20 C           3.0000    0.3813    0.0000 C.2     1  UNL1       -0.0796
     21 C           3.8764    4.2322    0.0000 C.3     1  UNL1        0.0606
     22 C           4.8001   -3.7086    0.0000 C.3     1  UNL1        0.1486
     23 C           3.0277    1.4871    0.0000 C.3     1  UNL1       -0.0587
     24 C           2.8976    3.6672    0.0000 C.3     1  UNL1       -0.0258
     25 C           5.7689   -0.4935    0.0000 C.3     1  UNL1       -0.0550
     26 C           3.0080   -0.6603    0.0000 C.2     1  UNL1       -0.0617
     27 C           3.0080   -2.6740    0.0000 C.3     1  UNL1       -0.0224
     28 C           3.0000   -3.7156    0.0000 C.3     1  UNL1       -0.0017
     29 C           3.9021   -4.2364    0.0000 C.3     1  UNL1        0.0988
     30 C           5.7037   -3.1744    0.0000 C.2     1  UNL1        0.3215
     31 C           5.3607    4.5198    0.0000 C.3     1  UNL1       -0.0572
     32 C           5.8507    3.6481    0.0000 C.3     1  UNL1       -0.0572
     33 C           2.0000   -3.7117    0.0000 C.3     1  UNL1       -0.0570
     34 C           2.4967   -4.5797    0.0000 C.3     1  UNL1       -0.0570
     35 H           3.1643    1.3243    0.0000 H       1  UNL1        0.0354
     36 H           5.5743    2.9461    0.0000 H       1  UNL1        0.0312
     37 H           5.9521    0.3082    0.0000 H       1  UNL1        0.0271
     38 H           6.3644    0.9917    0.0000 H       1  UNL1        0.0271
     39 H           6.3779    1.8644    0.0000 H       1  UNL1        0.0268
     40 H           5.9868    2.5603    0.0000 H       1  UNL1        0.0268
     41 H           6.2607   -1.2748    0.0000 H       1  UNL1        0.0274
     42 H           5.8621   -0.5845    0.0000 H       1  UNL1        0.0274
     43 H           2.2947    2.6384    0.0000 H       1  UNL1        0.0272
     44 H           2.7018    1.9517    0.0000 H       1  UNL1        0.0272
     45 H           5.8621   -2.7497    0.0000 H       1  UNL1        0.0280
     46 H           6.2607   -2.0595    0.0000 H       1  UNL1        0.0280
     47 H           5.6712   -0.4166    0.0000 H       1  UNL1        0.0236
     48 H           6.3933    0.0808    0.0000 H       1  UNL1        0.0236
     49 H           5.8959    0.8029    0.0000 H       1  UNL1        0.0236
     50 H           2.4619    0.6893    0.0000 H       1  UNL1        0.0575
     51 H           4.4151    4.5391    0.0000 H       1  UNL1        0.0599
     52 H           4.8082   -4.5586    0.0000 H       1  UNL1        0.0775
     53 H           2.7177    2.0240    0.0000 H       1  UNL1        0.0235
     54 H           2.4907    1.1771    0.0000 H       1  UNL1        0.0235
     55 H           3.3377    0.9502    0.0000 H       1  UNL1        0.0235
     56 H           2.6841    4.2492    0.0000 H       1  UNL1        0.0290
     57 H           2.2876    3.5564    0.0000 H       1  UNL1        0.0290
     58 H           5.8765   -1.1040    0.0000 H       1  UNL1        0.0238
     59 H           6.3794   -0.3858    0.0000 H       1  UNL1        0.0238
     60 H           5.6612    0.1171    0.0000 H       1  UNL1        0.0238
     61 H           2.4747   -0.9765    0.0000 H       1  UNL1        0.0617
     62 H           2.8035   -2.0887    0.0000 H       1  UNL1        0.0316
     63 H           2.3964   -2.7754    0.0000 H       1  UNL1        0.0316
     64 H           3.3657   -4.5474    0.0000 H       1  UNL1        0.0636
     65 H           5.8435    3.0281    0.0000 H       1  UNL1        0.0236
     66 H           6.4707    3.6409    0.0000 H       1  UNL1        0.0236
     67 H           5.8941    4.2036    0.0000 H       1  UNL1        0.0236
     68 H           5.6769    5.0531    0.0000 H       1  UNL1        0.0236
     69 H           4.8274    4.8360    0.0000 H       1  UNL1        0.0236
     70 H           5.8579    4.2680    0.0000 H       1  UNL1        0.0236
     71 H           1.9609   -4.2676    0.0000 H       1  UNL1        0.0236
     72 H           2.1846   -5.1154    0.0000 H       1  UNL1        0.0236
     73 H           2.0024   -3.0917    0.0000 H       1  UNL1        0.0236
     74 H           3.0324   -4.8917    0.0000 H       1  UNL1        0.0236
     75 H           1.3800   -3.7093    0.0000 H       1  UNL1        0.0236
     76 H           1.9976   -4.3317    0.0000 H       1  UNL1        0.0236
     77 H           3.3445    5.5443    0.0000 H       1  UNL1        0.2098
     78 H           4.4440   -5.5443    0.0000 H       1  UNL1        0.2100
@<TRIPOS>BOND
     1     1    22    1
     2     1    30    1
     3    21     2    1
     4     2    77    1
     5    29     3    1
     6     3    78    1
     7     4    30    2
     8     5     7    1
     9     5     8    1
    10     5    10    1
    11     5    19    1
    12     6     7    1
    13     6     9    1
    14     6    16    1
    15     6    23    1
    16     7    20    1
    17     7    35    1
    18     8    14    1
    19     8    15    1
    20     8    25    1
    21     9    11    1
    22     9    12    1
    23     9    36    1
    24    10    11    1
    25    10    37    1
    26    10    38    1
    27    11    39    1
    28    11    40    1
    29    12    21    1
    30    12    31    1
    31    12    32    1
    32    13    17    1
    33    13    18    1
    34    13    22    1
    35    13    30    1
    36    14    17    2
    37    14    26    1
    38    15    18    1
    39    15    41    1
    40    15    42    1
    41    16    24    1
    42    16    43    1
    43    16    44    1
    44    17    27    1
    45    18    45    1
    46    18    46    1
    47    19    47    1
    48    19    48    1
    49    19    49    1
    50    20    26    2
    51    20    50    1
    52    21    24    1
    53    21    51    1
    54    22    29    1
    55    22    52    1
    56    23    53    1
    57    23    54    1
    58    23    55    1
    59    24    56    1
    60    24    57    1
    61    25    58    1
    62    25    59    1
    63    25    60    1
    64    26    61    1
    65    27    28    1
    66    27    62    1
    67    27    63    1
    68    28    29    1
    69    28    33    1
    70    28    34    1
    71    29    64    1
    72    31    67    1
    73    31    68    1
    74    31    69    1
    75    32    65    1
    76    32    66    1
    77    32    70    1
    78    33    73    1
    79    33    75    1
    80    33    76    1
    81    34    71    1
    82    34    72    1
    83    34    74    1
