@<TRIPOS>MOLECULE
IMPHY011070
 30 29 0 0 0
SMALL
GASTEIGER

@<TRIPOS>ATOM
      1 O           3.7320    0.4400    0.0000 O.3     1  UNL1       -0.4342
      2 O           2.8660   -1.0600    0.0000 O.2     1  UNL1       -0.2508
      3 C           8.0622   -0.0600    0.0000 C.3     1  UNL1       -0.0528
      4 C           8.9282    0.4400    0.0000 C.3     1  UNL1       -0.0533
      5 C           7.1962    0.4400    0.0000 C.3     1  UNL1       -0.0495
      6 C           9.7942   -0.0600    0.0000 C.3     1  UNL1       -0.0559
      7 C           6.3301   -0.0600    0.0000 C.3     1  UNL1       -0.0316
      8 C          10.6603    0.4400    0.0000 C.3     1  UNL1       -0.0653
      9 C           5.4641    0.4400    0.0000 C.2     1  UNL1       -0.0490
     10 C           4.5981   -0.0600    0.0000 C.2     1  UNL1        0.0917
     11 C           2.8660   -0.0600    0.0000 C.2     1  UNL1        0.3086
     12 C           2.0000    0.4400    0.0000 C.3     1  UNL1        0.0336
     13 H           7.6636   -0.5349    0.0000 H       1  UNL1        0.0265
     14 H           8.4607   -0.5349    0.0000 H       1  UNL1        0.0265
     15 H           9.3267    0.9149    0.0000 H       1  UNL1        0.0265
     16 H           8.5297    0.9149    0.0000 H       1  UNL1        0.0265
     17 H           7.5947    0.9149    0.0000 H       1  UNL1        0.0268
     18 H           6.7976    0.9149    0.0000 H       1  UNL1        0.0268
     19 H           9.3957   -0.5349    0.0000 H       1  UNL1        0.0263
     20 H          10.1928   -0.5349    0.0000 H       1  UNL1        0.0263
     21 H           5.9316   -0.5349    0.0000 H       1  UNL1        0.0308
     22 H           6.7287   -0.5349    0.0000 H       1  UNL1        0.0308
     23 H          10.9703   -0.0969    0.0000 H       1  UNL1        0.0230
     24 H          11.1972    0.7500    0.0000 H       1  UNL1        0.0230
     25 H          10.3503    0.9769    0.0000 H       1  UNL1        0.0230
     26 H           5.4641    1.0600    0.0000 H       1  UNL1        0.0602
     27 H           4.5981   -0.6800    0.0000 H       1  UNL1        0.1027
     28 H           2.3100    0.9769    0.0000 H       1  UNL1        0.0342
     29 H           1.4631    0.7500    0.0000 H       1  UNL1        0.0342
     30 H           1.6900   -0.0969    0.0000 H       1  UNL1        0.0342
@<TRIPOS>BOND
     1     1    10    1
     2     1    11    1
     3     2    11    2
     4     3     4    1
     5     3     5    1
     6     3    13    1
     7     3    14    1
     8     4     6    1
     9     4    15    1
    10     4    16    1
    11     5     7    1
    12     5    17    1
    13     5    18    1
    14     6     8    1
    15     6    19    1
    16     6    20    1
    17     7     9    1
    18     7    21    1
    19     7    22    1
    20     8    23    1
    21     8    24    1
    22     8    25    1
    23     9    10    2
    24     9    26    1
    25    10    27    1
    26    11    12    1
    27    12    28    1
    28    12    29    1
    29    12    30    1
