@<TRIPOS>MOLECULE
IMPHY013479
 197 207 0 0 0
SMALL
GASTEIGER

@<TRIPOS>ATOM
      1 O          21.8779    4.1839    0.0000 O.3     1  UNL1       -0.3449
      2 O          12.9292    1.1663    0.0000 O.3     1  UNL1       -0.4318
      3 O          13.7953    2.6663    0.0000 O.2     1  UNL1       -0.2501
      4 O          23.6098    4.1639    0.0000 O.3     1  UNL1       -0.3461
      5 O          21.8547    2.1840    0.0000 O.3     1  UNL1       -0.3378
      6 O          11.1972    1.1663    0.0000 O.3     1  UNL1       -0.3312
      7 O          23.5751    1.1641    0.0000 O.3     1  UNL1       -0.3864
      8 O          25.3186    2.1440    0.0000 O.3     1  UNL1       -0.3869
      9 O          12.9292    3.1663    0.0000 O.3     1  UNL1       -0.3829
     10 O          11.1972    4.1663    0.0000 O.3     1  UNL1       -0.3864
     11 O          22.7034    0.6741    0.0000 O.3     1  UNL1       -0.3431
     12 O           9.4651    3.1663    0.0000 O.3     1  UNL1       -0.3865
     13 O           9.4651    0.1663    0.0000 O.3     1  UNL1       -0.3460
     14 O          20.1112    1.2042    0.0000 O.3     1  UNL1       -0.3841
     15 O          20.0881   -0.7957    0.0000 O.3     1  UNL1       -0.3401
     16 O          21.8085   -1.8157    0.0000 O.3     1  UNL1       -0.3866
     17 O           7.7331    0.1663    0.0000 O.3     1  UNL1       -0.3405
     18 O          20.9367   -2.3056    0.0000 O.3     1  UNL1       -0.3461
     19 O           9.4651   -1.8337    0.0000 O.3     1  UNL1       -0.3841
     20 O          18.3446   -1.7756    0.0000 O.3     1  UNL1       -0.3841
     21 O           7.7331   -2.8337    0.0000 O.3     1  UNL1       -0.3864
     22 O           6.0010   -1.8337    0.0000 O.3     1  UNL1       -0.3401
     23 O          18.3215   -3.7755    0.0000 O.3     1  UNL1       -0.3864
     24 O          20.0419   -4.7954    0.0000 O.3     1  UNL1       -0.3869
     25 O           6.0010    1.1663    0.0000 O.3     1  UNL1       -0.3924
     26 O           4.2690   -1.8337    0.0000 O.3     1  UNL1       -0.3431
     27 O           6.0010    0.1663    0.0000 O.3     1  UNL1       -0.3841
     28 O           4.2690    1.1663    0.0000 O.3     1  UNL1       -0.3864
     29 O           2.5369    0.1663    0.0000 O.3     1  UNL1       -0.3866
     30 C          17.3390    2.6665    0.0000 C.3     1  UNL1       -0.0194
     31 C          18.2011    2.1599    0.0000 C.3     1  UNL1       -0.0257
     32 C          19.1150    2.6597    0.0000 C.3     1  UNL1       -0.0250
     33 C          16.4691    2.1732    0.0000 C.3     1  UNL1       -0.0051
     34 C          19.1311    3.7012    0.0000 C.3     1  UNL1       -0.0278
     35 C          17.3309    3.7081    0.0000 C.3     1  UNL1       -0.0463
     36 C          20.0707    4.2437    0.0000 C.3     1  UNL1       -0.0052
     37 C          18.2330    4.2290    0.0000 C.3     1  UNL1       -0.0486
     38 C          16.4614    1.1732    0.0000 C.2     1  UNL1       -0.0629
     39 C          15.5634    0.6455    0.0000 C.3     1  UNL1       -0.0031
     40 C          18.1934    1.1599    0.0000 C.3     1  UNL1       -0.0306
     41 C          20.0375    2.0885    0.0000 C.3     1  UNL1       -0.0447
     42 C          15.5793    2.7148    0.0000 C.3     1  UNL1       -0.0424
     43 C          14.6613    1.1663    0.0000 C.3     1  UNL1        0.0744
     44 C          16.7021    3.4375    0.0000 C.3     1  UNL1       -0.0585
     45 C          21.0061    3.6940    0.0000 C.3     1  UNL1        0.0672
     46 C          14.6693    2.2079    0.0000 C.3     1  UNL1       -0.0359
     47 C          19.0996    1.6598    0.0000 C.3     1  UNL1       -0.0590
     48 C          17.3236    0.6666    0.0000 C.2     1  UNL1       -0.0836
     49 C          20.9894    2.6091    0.0000 C.3     1  UNL1       -0.0255
     50 C          16.1343    3.1155    0.0000 C.3     1  UNL1       -0.0553
     51 C          15.5801   -0.4394    0.0000 C.3     1  UNL1       -0.0403
     52 C          13.7134    0.6384    0.0000 C.3     1  UNL1       -0.0362
     53 C          14.6447   -0.9891    0.0000 C.3     1  UNL1       -0.0343
     54 C          20.5740    5.1078    0.0000 C.3     1  UNL1       -0.0572
     55 C          19.5740    5.1116    0.0000 C.3     1  UNL1       -0.0572
     56 C          13.7050   -0.4466    0.0000 C.3     1  UNL1       -0.0468
     57 C          13.7953    1.6663    0.0000 C.2     1  UNL1        0.3161
     58 C          15.1480   -1.8532    0.0000 C.3     1  UNL1       -0.0598
     59 C          14.1480   -1.8570    0.0000 C.3     1  UNL1       -0.0598
     60 C          22.7380    3.6739    0.0000 C.3     1  UNL1        0.1882
     61 C          22.7265    2.6740    0.0000 C.3     1  UNL1        0.1406
     62 C          12.0632    1.6663    0.0000 C.3     1  UNL1        0.2337
     63 C          23.5867    2.1640    0.0000 C.3     1  UNL1        0.1141
     64 C          24.4700    3.6539    0.0000 C.3     1  UNL1        0.0792
     65 C          24.4584    2.6540    0.0000 C.3     1  UNL1        0.1069
     66 C          12.0632    2.6663    0.0000 C.3     1  UNL1        0.1455
     67 C          11.1972    3.1663    0.0000 C.3     1  UNL1        0.1152
     68 C          10.3312    1.6663    0.0000 C.3     1  UNL1        0.1144
     69 C          10.3312    2.6663    0.0000 C.3     1  UNL1        0.1120
     70 C          21.8432    1.1841    0.0000 C.3     1  UNL1        0.1884
     71 C          20.9714    0.6942    0.0000 C.3     1  UNL1        0.1345
     72 C           9.4651    1.1663    0.0000 C.3     1  UNL1        0.0796
     73 C          20.9599   -0.3058    0.0000 C.3     1  UNL1        0.1205
     74 C          22.6918   -0.3258    0.0000 C.3     1  UNL1        0.0873
     75 C          21.8200   -0.8157    0.0000 C.3     1  UNL1        0.1098
     76 C          23.5520   -0.8358    0.0000 C.3     1  UNL1       -0.0361
     77 C           8.5991   -0.3337    0.0000 C.3     1  UNL1        0.1880
     78 C          20.0765   -1.7956    0.0000 C.3     1  UNL1        0.1880
     79 C           8.5991   -1.3337    0.0000 C.3     1  UNL1        0.1341
     80 C          19.2048   -2.2856    0.0000 C.3     1  UNL1        0.1341
     81 C           7.7331   -1.8337    0.0000 C.3     1  UNL1        0.1144
     82 C           6.8671   -0.3337    0.0000 C.3     1  UNL1        0.1134
     83 C           6.8671   -1.3337    0.0000 C.3     1  UNL1        0.1184
     84 C          19.1932   -3.2855    0.0000 C.3     1  UNL1        0.1137
     85 C          20.9252   -3.3056    0.0000 C.3     1  UNL1        0.0792
     86 C          20.0534   -3.7955    0.0000 C.3     1  UNL1        0.1069
     87 C           6.0010    0.1663    0.0000 C.3     1  UNL1        0.0730
     88 C           5.1350   -1.3337    0.0000 C.3     1  UNL1        0.1883
     89 C           5.1350   -0.3337    0.0000 C.3     1  UNL1        0.1341
     90 C           4.2690    0.1663    0.0000 C.3     1  UNL1        0.1140
     91 C           3.4030   -1.3337    0.0000 C.3     1  UNL1        0.0873
     92 C           3.4030   -0.3337    0.0000 C.3     1  UNL1        0.1095
     93 C           2.5369   -1.8337    0.0000 C.3     1  UNL1       -0.0361
     94 H          18.9306    1.7236    0.0000 H       1  UNL1        0.0315
     95 H          19.1343    4.5512    0.0000 H       1  UNL1        0.0312
     96 H          17.1174    4.2902    0.0000 H       1  UNL1        0.0271
     97 H          16.7209    3.5973    0.0000 H       1  UNL1        0.0271
     98 H          18.6340    4.7018    0.0000 H       1  UNL1        0.0268
     99 H          17.8357    4.7049    0.0000 H       1  UNL1        0.0268
    100 H          16.3044    0.2290    0.0000 H       1  UNL1        0.0357
    101 H          18.4010    0.5757    0.0000 H       1  UNL1        0.0310
    102 H          18.8048    1.2628    0.0000 H       1  UNL1        0.0310
    103 H          19.6257    1.6250    0.0000 H       1  UNL1        0.0271
    104 H          20.4237    1.6034    0.0000 H       1  UNL1        0.0271
    105 H          15.9875    3.1814    0.0000 H       1  UNL1        0.0274
    106 H          15.1894    3.1968    0.0000 H       1  UNL1        0.0274
    107 H          17.1801    3.8324    0.0000 H       1  UNL1        0.0235
    108 H          16.3073    3.9155    0.0000 H       1  UNL1        0.0235
    109 H          16.2241    3.0426    0.0000 H       1  UNL1        0.0235
    110 H          21.5388    3.3768    0.0000 H       1  UNL1        0.0602
    111 H          14.4648    2.7932    0.0000 H       1  UNL1        0.0276
    112 H          14.0577    2.1065    0.0000 H       1  UNL1        0.0276
    113 H          18.4797    1.6694    0.0000 H       1  UNL1        0.0235
    114 H          19.0900    1.0399    0.0000 H       1  UNL1        0.0235
    115 H          19.7195    1.6502    0.0000 H       1  UNL1        0.0235
    116 H          17.3188    0.0466    0.0000 H       1  UNL1        0.0572
    117 H          21.1894    2.0223    0.0000 H       1  UNL1        0.0290
    118 H          21.6018    2.7058    0.0000 H       1  UNL1        0.0290
    119 H          16.7186    3.3231    0.0000 H       1  UNL1        0.0238
    120 H          15.9268    3.6998    0.0000 H       1  UNL1        0.0238
    121 H          15.5501    2.9080    0.0000 H       1  UNL1        0.0238
    122 H          15.7981   -1.0198    0.0000 H       1  UNL1        0.0276
    123 H          16.1892   -0.3239    0.0000 H       1  UNL1        0.0276
    124 H          13.5089    1.2237    0.0000 H       1  UNL1        0.0276
    125 H          13.1018    0.5370    0.0000 H       1  UNL1        0.0276
    126 H          21.1098    4.7957    0.0000 H       1  UNL1        0.0236
    127 H          20.8861    5.6435    0.0000 H       1  UNL1        0.0236
    128 H          20.0383    5.4198    0.0000 H       1  UNL1        0.0236
    129 H          20.1122    5.4196    0.0000 H       1  UNL1        0.0236
    130 H          19.2661    5.6498    0.0000 H       1  UNL1        0.0236
    131 H          19.0359    4.8037    0.0000 H       1  UNL1        0.0236
    132 H          13.0950   -0.3358    0.0000 H       1  UNL1        0.0271
    133 H          13.4915   -1.0287    0.0000 H       1  UNL1        0.0271
    134 H          14.6123   -2.1652    0.0000 H       1  UNL1        0.0235
    135 H          15.4601   -2.3889    0.0000 H       1  UNL1        0.0235
    136 H          15.6837   -1.5411    0.0000 H       1  UNL1        0.0235
    137 H          13.6099   -1.5491    0.0000 H       1  UNL1        0.0235
    138 H          13.8401   -2.3952    0.0000 H       1  UNL1        0.0235
    139 H          14.6861   -2.1650    0.0000 H       1  UNL1        0.0235
    140 H          22.1976    3.3702    0.0000 H       1  UNL1        0.0937
    141 H          22.7193    2.0540    0.0000 H       1  UNL1        0.0675
    142 H          12.6002    1.9763    0.0000 H       1  UNL1        0.1085
    143 H          24.1200    1.8478    0.0000 H       1  UNL1        0.0648
    144 H          25.0793    3.5392    0.0000 H       1  UNL1        0.0587
    145 H          24.6888    4.2340    0.0000 H       1  UNL1        0.0587
    146 H          24.9989    2.9578    0.0000 H       1  UNL1        0.0643
    147 H          12.0632    3.2863    0.0000 H       1  UNL1        0.0683
    148 H          10.6603    3.4763    0.0000 H       1  UNL1        0.0648
    149 H          10.3312    1.0463    0.0000 H       1  UNL1        0.0647
    150 H           9.7942    2.3563    0.0000 H       1  UNL1        0.0647
    151 H          21.3099    1.5003    0.0000 H       1  UNL1        0.0938
    152 H          24.1084    0.8479    0.0000 H       1  UNL1        0.2100
    153 H          25.8591    2.4478    0.0000 H       1  UNL1        0.2100
    154 H          12.9292    3.7863    0.0000 H       1  UNL1        0.2102
    155 H          20.4309    0.3904    0.0000 H       1  UNL1        0.0671
    156 H           9.2531    1.7489    0.0000 H       1  UNL1        0.0587
    157 H           8.8546    1.0586    0.0000 H       1  UNL1        0.0587
    158 H          11.7341    4.4763    0.0000 H       1  UNL1        0.2100
    159 H          20.9527   -0.9257    0.0000 H       1  UNL1        0.0651
    160 H           9.4651    3.7863    0.0000 H       1  UNL1        0.2100
    161 H          23.2323   -0.0220    0.0000 H       1  UNL1        0.0621
    162 H          22.3534   -1.1319    0.0000 H       1  UNL1        0.0646
    163 H          19.5708    0.9004    0.0000 H       1  UNL1        0.2101
    164 H          23.2358   -1.3691    0.0000 H       1  UNL1        0.0255
    165 H          24.0853   -1.1520    0.0000 H       1  UNL1        0.0255
    166 H          23.8682   -0.3025    0.0000 H       1  UNL1        0.0255
    167 H           8.5991    0.2863    0.0000 H       1  UNL1        0.0937
    168 H          22.3418   -2.1319    0.0000 H       1  UNL1        0.2100
    169 H          19.5432   -1.4795    0.0000 H       1  UNL1        0.0937
    170 H           8.5991   -1.9537    0.0000 H       1  UNL1        0.0671
    171 H          19.2120   -1.6656    0.0000 H       1  UNL1        0.0671
    172 H           7.1962   -2.1437    0.0000 H       1  UNL1        0.0648
    173 H           6.8671    0.2863    0.0000 H       1  UNL1        0.0647
    174 H           6.3301   -1.0237    0.0000 H       1  UNL1        0.0651
    175 H          18.6599   -2.9694    0.0000 H       1  UNL1        0.0647
    176 H          10.0021   -1.5237    0.0000 H       1  UNL1        0.2101
    177 H          21.1305   -3.8906    0.0000 H       1  UNL1        0.0587
    178 H          21.5370   -3.2050    0.0000 H       1  UNL1        0.0587
    179 H          20.5867   -4.1117    0.0000 H       1  UNL1        0.0643
    180 H           5.3905    0.2740    0.0000 H       1  UNL1        0.0584
    181 H           5.7890   -0.4163    0.0000 H       1  UNL1        0.0584
    182 H          17.8041   -2.0794    0.0000 H       1  UNL1        0.2101
    183 H           8.2700   -3.1437    0.0000 H       1  UNL1        0.2100
    184 H          18.3143   -4.3954    0.0000 H       1  UNL1        0.2100
    185 H           5.1350   -1.9537    0.0000 H       1  UNL1        0.0938
    186 H          20.5752   -5.1116    0.0000 H       1  UNL1        0.2100
    187 H           6.5380    1.4763    0.0000 H       1  UNL1        0.2095
    188 H           5.1350    0.2863    0.0000 H       1  UNL1        0.0671
    189 H           3.7320    0.4763    0.0000 H       1  UNL1        0.0648
    190 H           3.4030   -1.9537    0.0000 H       1  UNL1        0.0621
    191 H           3.4030    0.2863    0.0000 H       1  UNL1        0.0646
    192 H           6.0010    0.7863    0.0000 H       1  UNL1        0.2101
    193 H           2.2269   -1.2968    0.0000 H       1  UNL1        0.0255
    194 H           2.0000   -2.1437    0.0000 H       1  UNL1        0.0255
    195 H           2.8469   -2.3706    0.0000 H       1  UNL1        0.0255
    196 H           3.7320    1.4763    0.0000 H       1  UNL1        0.2100
    197 H           2.0000   -0.1437    0.0000 H       1  UNL1        0.2100
@<TRIPOS>BOND
     1    45     1    1
     2    60     1    1
     3     2    57    1
     4    62     2    1
     5     3    57    2
     6     4    60    1
     7     4    64    1
     8    61     5    1
     9    70     5    1
    10     6    62    1
    11     6    68    1
    12    63     7    1
    13     7   152    1
    14    65     8    1
    15     8   153    1
    16    66     9    1
    17     9   154    1
    18    67    10    1
    19    10   158    1
    20    11    70    1
    21    11    74    1
    22    69    12    1
    23    12   160    1
    24    13    72    1
    25    77    13    1
    26    71    14    1
    27    14   163    1
    28    73    15    1
    29    78    15    1
    30    75    16    1
    31    16   168    1
    32    17    77    1
    33    17    82    1
    34    18    78    1
    35    18    85    1
    36    79    19    1
    37    19   176    1
    38    80    20    1
    39    20   182    1
    40    81    21    1
    41    21   183    1
    42    83    22    1
    43    88    22    1
    44    84    23    1
    45    23   184    1
    46    86    24    1
    47    24   186    1
    48    25    87    1
    49    25   187    1
    50    26    88    1
    51    26    91    1
    52    89    27    1
    53    27   192    1
    54    90    28    1
    55    28   196    1
    56    92    29    1
    57    29   197    1
    58    30    31    1
    59    30    33    1
    60    30    35    1
    61    30    44    1
    62    31    32    1
    63    31    40    1
    64    31    94    1
    65    32    34    1
    66    32    41    1
    67    32    47    1
    68    33    38    1
    69    33    42    1
    70    33    50    1
    71    34    36    1
    72    34    37    1
    73    34    95    1
    74    35    37    1
    75    35    96    1
    76    35    97    1
    77    36    45    1
    78    36    54    1
    79    36    55    1
    80    37    98    1
    81    37    99    1
    82    38    39    1
    83    38    48    2
    84    39    43    1
    85    39    51    1
    86    39   100    1
    87    40    48    1
    88    40   101    1
    89    40   102    1
    90    41    49    1
    91    41   103    1
    92    41   104    1
    93    42    46    1
    94    42   105    1
    95    42   106    1
    96    43    46    1
    97    43    52    1
    98    43    57    1
    99    44   107    1
   100    44   108    1
   101    44   109    1
   102    45    49    1
   103    45   110    1
   104    46   111    1
   105    46   112    1
   106    47   113    1
   107    47   114    1
   108    47   115    1
   109    48   116    1
   110    49   117    1
   111    49   118    1
   112    50   119    1
   113    50   120    1
   114    50   121    1
   115    51    53    1
   116    51   122    1
   117    51   123    1
   118    52    56    1
   119    52   124    1
   120    52   125    1
   121    53    56    1
   122    53    58    1
   123    53    59    1
   124    54   126    1
   125    54   127    1
   126    54   128    1
   127    55   129    1
   128    55   130    1
   129    55   131    1
   130    56   132    1
   131    56   133    1
   132    58   134    1
   133    58   135    1
   134    58   136    1
   135    59   137    1
   136    59   138    1
   137    59   139    1
   138    60    61    1
   139    60   140    1
   140    61    63    1
   141    61   141    1
   142    62    66    1
   143    62   142    1
   144    63    65    1
   145    63   143    1
   146    64    65    1
   147    64   144    1
   148    64   145    1
   149    65   146    1
   150    66    67    1
   151    66   147    1
   152    67    69    1
   153    67   148    1
   154    68    69    1
   155    68    72    1
   156    68   149    1
   157    69   150    1
   158    70    71    1
   159    70   151    1
   160    71    73    1
   161    71   155    1
   162    72   156    1
   163    72   157    1
   164    73    75    1
   165    73   159    1
   166    74    75    1
   167    74    76    1
   168    74   161    1
   169    75   162    1
   170    76   164    1
   171    76   165    1
   172    76   166    1
   173    77    79    1
   174    77   167    1
   175    78    80    1
   176    78   169    1
   177    79    81    1
   178    79   170    1
   179    80    84    1
   180    80   171    1
   181    81    83    1
   182    81   172    1
   183    82    83    1
   184    82    87    1
   185    82   173    1
   186    83   174    1
   187    84    86    1
   188    84   175    1
   189    85    86    1
   190    85   177    1
   191    85   178    1
   192    86   179    1
   193    87   180    1
   194    87   181    1
   195    88    89    1
   196    88   185    1
   197    89    90    1
   198    89   188    1
   199    90    92    1
   200    90   189    1
   201    91    92    1
   202    91    93    1
   203    91   190    1
   204    92   191    1
   205    93   193    1
   206    93   194    1
   207    93   195    1
