@<TRIPOS>MOLECULE
IMPHY008677
 50 52 0 0 0
SMALL
GASTEIGER

@<TRIPOS>ATOM
      1 CL          3.8259    0.0000    0.0000 Cl      1  UNL1        0.0000
      2 O           4.0484    7.4715    0.0000 O.3     2  UNL2       -0.5029
      3 O           5.8143    8.5093    0.0000 O.3     2  UNL2       -0.4914
      4 O           3.1878    6.9746    0.0000 O.3     2  UNL2       -0.5029
      5 O           1.4061    5.9642    0.0000 O.3     2  UNL2       -0.4914
      6 N           6.6604    3.9431    0.0000 N.4     2  UNL2        0.2449
      7 C           5.8022    4.4400    0.0000 C.3     2  UNL2        0.0113
      8 C           7.5259    4.4273    0.0000 C.3     2  UNL2       -0.0259
      9 C           5.8022    5.4400    0.0000 C.ar    2  UNL2        0.0154
     10 C           4.9362    3.9400    0.0000 C.3     2  UNL2        0.0207
     11 C           7.5515    5.4187    0.0000 C.3     2  UNL2        0.0134
     12 C           6.7122    5.9469    0.0000 C.ar    2  UNL2       -0.0296
     13 C           7.1540    3.0734    0.0000 C.3     2  UNL2       -0.0409
     14 C           6.1540    3.0808    0.0000 C.3     2  UNL2       -0.0409
     15 C           4.9362    5.9400    0.0000 C.ar    2  UNL2        0.0398
     16 C           4.0702    4.4400    0.0000 C.ar    2  UNL2       -0.0301
     17 C           4.0702    5.4400    0.0000 C.ar    2  UNL2        0.0347
     18 C           6.7203    6.9885    0.0000 C.ar    2  UNL2       -0.0125
     19 C           4.9201    6.9816    0.0000 C.ar    2  UNL2        0.1669
     20 C           5.8182    7.5093    0.0000 C.ar    2  UNL2        0.1622
     21 C           3.1762    3.9054    0.0000 C.ar    2  UNL2       -0.0541
     22 C           3.1762    5.9747    0.0000 C.ar    2  UNL2        0.1667
     23 C           2.2702    5.4609    0.0000 C.ar    2  UNL2        0.1619
     24 C           2.2702    4.4192    0.0000 C.ar    2  UNL2       -0.0160
     25 C           6.6784    9.0126    0.0000 C.3     2  UNL2        0.0790
     26 C           0.5381    5.4676    0.0000 C.3     2  UNL2        0.0790
     27 H           5.8017    3.5900    0.0000 H       2  UNL2        0.0908
     28 H           7.7277    3.8410    0.0000 H       2  UNL2        0.0818
     29 H           8.1387    4.5217    0.0000 H       2  UNL2        0.0818
     30 H           4.5377    3.4651    0.0000 H       2  UNL2        0.0372
     31 H           5.3347    3.4651    0.0000 H       2  UNL2        0.0372
     32 H           8.1586    5.2928    0.0000 H       2  UNL2        0.0365
     33 H           7.7833    5.9937    0.0000 H       2  UNL2        0.0365
     34 H           6.6148    2.7674    0.0000 H       2  UNL2        0.0778
     35 H           7.4600    2.5342    0.0000 H       2  UNL2        0.0778
     36 H           7.6932    3.3794    0.0000 H       2  UNL2        0.0778
     37 H           5.6194    3.3948    0.0000 H       2  UNL2        0.0778
     38 H           5.8401    2.5462    0.0000 H       2  UNL2        0.0778
     39 H           6.6887    2.7669    0.0000 H       2  UNL2        0.0778
     40 H           7.2584    7.2964    0.0000 H       2  UNL2        0.0658
     41 H           3.1834    3.2854    0.0000 H       2  UNL2        0.0622
     42 H           1.7344    4.1072    0.0000 H       2  UNL2        0.0655
     43 H           4.0412    8.0915    0.0000 H       2  UNL2        0.2923
     44 H           2.6545    7.2908    0.0000 H       2  UNL2        0.2923
     45 H           6.9905    8.4769    0.0000 H       2  UNL2        0.0660
     46 H           7.2142    9.3247    0.0000 H       2  UNL2        0.0660
     47 H           6.3664    9.5484    0.0000 H       2  UNL2        0.0660
     48 H           0.2302    6.0057    0.0000 H       2  UNL2        0.0660
     49 H           0.0000    5.1596    0.0000 H       2  UNL2        0.0660
     50 H           0.8461    4.9294    0.0000 H       2  UNL2        0.0660
@<TRIPOS>UNITY_ATOM_ATTR
1 1
charge -1
6 1
charge 1
@<TRIPOS>BOND
     1     2    19    1
     2     2    43    1
     3     3    20    1
     4     3    25    1
     5     4    22    1
     6     4    44    1
     7     5    23    1
     8     5    26    1
     9     6     7    1
    10     6     8    1
    11     6    13    1
    12     6    14    1
    13     7     9    1
    14     7    10    1
    15     7    27    1
    16     8    11    1
    17     8    28    1
    18     8    29    1
    19     9    12   ar
    20     9    15   ar
    21    10    16    1
    22    10    30    1
    23    10    31    1
    24    11    12    1
    25    11    32    1
    26    11    33    1
    27    12    18   ar
    28    13    34    1
    29    13    35    1
    30    13    36    1
    31    14    37    1
    32    14    38    1
    33    14    39    1
    34    15    17    1
    35    15    19   ar
    36    16    17   ar
    37    16    21   ar
    38    17    22   ar
    39    18    20   ar
    40    18    40    1
    41    19    20   ar
    42    21    24   ar
    43    21    41    1
    44    22    23   ar
    45    23    24   ar
    46    24    42    1
    47    25    45    1
    48    25    46    1
    49    25    47    1
    50    26    48    1
    51    26    49    1
    52    26    50    1
