@<TRIPOS>MOLECULE
IMPHY000584
 29 30 0 0 0
SMALL
GASTEIGER

@<TRIPOS>ATOM
      1 O           5.5321   -0.0173    0.0000 O.2     1  UNL1       -0.4268
      2 O           4.6660   -1.5173    0.0000 O.2     1  UNL1       -0.2445
      3 C           6.3981    1.4827    0.0000 C.3     1  UNL1        0.0057
      4 C           7.2641    0.9827    0.0000 C.3     1  UNL1       -0.0465
      5 C           5.5321    0.9827    0.0000 C.ar    1  UNL1        0.1097
      6 C           8.1301    1.4827    0.0000 C.3     1  UNL1       -0.0555
      7 C           3.8000    0.9827    0.0000 C.ar    1  UNL1       -0.0079
      8 C           4.6660    1.4827    0.0000 C.ar    1  UNL1       -0.0155
      9 C           3.8000   -0.0173    0.0000 C.ar    1  UNL1        0.0666
     10 C           8.9962    0.9827    0.0000 C.3     1  UNL1       -0.0653
     11 C           4.6660   -0.5173    0.0000 C.ar    1  UNL1        0.3447
     12 C           2.9061    1.5173    0.0000 C.ar    1  UNL1       -0.0537
     13 C           2.9061   -0.5520    0.0000 C.ar    1  UNL1       -0.0472
     14 C           2.0000    1.0035    0.0000 C.ar    1  UNL1       -0.0612
     15 C           2.0000   -0.0381    0.0000 C.ar    1  UNL1       -0.0609
     16 H           6.7966    1.9576    0.0000 H       1  UNL1        0.0343
     17 H           5.9996    1.9576    0.0000 H       1  UNL1        0.0343
     18 H           6.8656    0.5077    0.0000 H       1  UNL1        0.0269
     19 H           7.6626    0.5077    0.0000 H       1  UNL1        0.0269
     20 H           8.5287    1.9576    0.0000 H       1  UNL1        0.0263
     21 H           7.7316    1.9576    0.0000 H       1  UNL1        0.0263
     22 H           4.6660    2.1027    0.0000 H       1  UNL1        0.0657
     23 H           8.6862    0.4457    0.0000 H       1  UNL1        0.0230
     24 H           9.5331    0.6727    0.0000 H       1  UNL1        0.0230
     25 H           9.3062    1.5196    0.0000 H       1  UNL1        0.0230
     26 H           2.9132    2.1373    0.0000 H       1  UNL1        0.0624
     27 H           2.9132   -1.1720    0.0000 H       1  UNL1        0.0626
     28 H           1.4643    1.3156    0.0000 H       1  UNL1        0.0618
     29 H           1.4643   -0.3502    0.0000 H       1  UNL1        0.0618
@<TRIPOS>BOND
     1     1     5   ar
     2     1    11   ar
     3     2    11    2
     4     3     4    1
     5     3     5    1
     6     3    16    1
     7     3    17    1
     8     4     6    1
     9     4    18    1
    10     4    19    1
    11     5     8   ar
    12     6    10    1
    13     6    20    1
    14     6    21    1
    15     7     8   ar
    16     7     9   ar
    17     7    12   ar
    18     8    22    1
    19     9    11   ar
    20     9    13   ar
    21    10    23    1
    22    10    24    1
    23    10    25    1
    24    12    14   ar
    25    12    26    1
    26    13    15   ar
    27    13    27    1
    28    14    15   ar
    29    14    28    1
    30    15    29    1
