@<TRIPOS>MOLECULE
IMPHY017649
 24 24 0 0 0
SMALL
GASTEIGER

@<TRIPOS>ATOM
      1 C           3.7601    0.2694    0.0000 C.3     1  UNL1       -0.0387
      2 C           4.5691   -0.3184    0.0000 C.3     1  UNL1       -0.0410
      3 C           2.9511   -0.3184    0.0000 C.3     1  UNL1       -0.0410
      4 C           4.2601   -1.2694    0.0000 C.3     1  UNL1       -0.0500
      5 C           3.2601   -1.2694    0.0000 C.3     1  UNL1       -0.0500
      6 C           3.7601    1.2694    0.0000 C.3     1  UNL1       -0.0619
      7 C           5.5202   -0.0093    0.0000 C.3     1  UNL1       -0.0622
      8 C           2.0000   -0.0093    0.0000 C.3     1  UNL1       -0.0622
      9 H           4.3125    0.5509    0.0000 H       1  UNL1        0.0303
     10 H           4.6661    0.2940    0.0000 H       1  UNL1        0.0301
     11 H           2.5126   -0.7568    0.0000 H       1  UNL1        0.0301
     12 H           4.1953   -1.8860    0.0000 H       1  UNL1        0.0268
     13 H           4.8665   -1.3983    0.0000 H       1  UNL1        0.0268
     14 H           2.6536   -1.3983    0.0000 H       1  UNL1        0.0268
     15 H           3.3249   -1.8860    0.0000 H       1  UNL1        0.0268
     16 H           4.3801    1.2694    0.0000 H       1  UNL1        0.0233
     17 H           3.7601    1.8894    0.0000 H       1  UNL1        0.0233
     18 H           3.1401    1.2694    0.0000 H       1  UNL1        0.0233
     19 H           5.7117   -0.5990    0.0000 H       1  UNL1        0.0233
     20 H           6.1098    0.1822    0.0000 H       1  UNL1        0.0233
     21 H           5.3286    0.5803    0.0000 H       1  UNL1        0.0233
     22 H           2.1916    0.5803    0.0000 H       1  UNL1        0.0233
     23 H           1.4103    0.1822    0.0000 H       1  UNL1        0.0233
     24 H           1.8084   -0.5990    0.0000 H       1  UNL1        0.0233
@<TRIPOS>BOND
     1     1     2    1
     2     1     3    1
     3     1     6    1
     4     1     9    1
     5     2     4    1
     6     2     7    1
     7     2    10    1
     8     3     5    1
     9     3     8    1
    10     3    11    1
    11     4     5    1
    12     4    12    1
    13     4    13    1
    14     5    14    1
    15     5    15    1
    16     6    16    1
    17     6    17    1
    18     6    18    1
    19     7    19    1
    20     7    20    1
    21     7    21    1
    22     8    22    1
    23     8    23    1
    24     8    24    1
