@<TRIPOS>MOLECULE
IMPHY008023
 50 54 0 0 0
SMALL
GASTEIGER

@<TRIPOS>ATOM
      1 O          10.5661    1.3110    0.0000 O.3     1  UNL1       -0.4778
      2 O           7.0301    1.3388    0.0000 O.2     1  UNL1       -0.4614
      3 O          10.5221   -0.6959    0.0000 O.3     1  UNL1       -0.4914
      4 O           2.5805   -0.4256    0.0000 O.3     1  UNL1       -0.4526
      5 O           2.5867   -2.0351    0.0000 O.3     1  UNL1       -0.4525
      6 O           7.0416   -1.7305    0.0000 O.2     1  UNL1       -0.2864
      7 O           6.1317   -2.2167    0.0000 O.3     1  UNL1       -0.4944
      8 C          10.5741    2.3526    0.0000 C.3     1  UNL1        0.1237
      9 C           8.7901    1.3041    0.0000 C.ar    1  UNL1        0.0631
     10 C           9.6561    0.8041    0.0000 C.ar    1  UNL1        0.1738
     11 C           7.9240    0.8041    0.0000 C.ar    1  UNL1        0.1492
     12 C           9.6720    2.8734    0.0000 C.2     1  UNL1       -0.0408
     13 C           7.9240   -0.1959    0.0000 C.ar    1  UNL1        0.0688
     14 C           8.7740    2.3456    0.0000 C.2     1  UNL1       -0.0476
     15 C          11.0774    3.2167    0.0000 C.3     1  UNL1       -0.0215
     16 C          11.5741    2.3487    0.0000 C.3     1  UNL1       -0.0215
     17 C           9.6561   -0.1959    0.0000 C.ar    1  UNL1        0.1630
     18 C           8.7901   -0.6959    0.0000 C.ar    1  UNL1       -0.0019
     19 C           6.1240   -0.2167    0.0000 C.ar    1  UNL1        0.0679
     20 C           7.0301   -0.7305    0.0000 C.ar    1  UNL1        0.2004
     21 C           5.2599   -0.7200    0.0000 C.ar    1  UNL1        0.0341
     22 C           6.1240    0.8249    0.0000 C.ar    1  UNL1        0.1040
     23 C           5.2638   -1.7200    0.0000 C.ar    1  UNL1        0.1317
     24 C           4.3920   -0.2234    0.0000 C.ar    1  UNL1       -0.0047
     25 C           3.5279   -0.7267    0.0000 C.ar    1  UNL1        0.1670
     26 C           3.5317   -1.7267    0.0000 C.ar    1  UNL1        0.1697
     27 C           4.3997   -2.2234    0.0000 C.ar    1  UNL1        0.0262
     28 C           2.0000   -1.2326    0.0000 C.3     1  UNL1        0.2332
     29 C          10.5221   -1.6959    0.0000 C.3     1  UNL1        0.0790
     30 C           6.1356   -3.2167    0.0000 C.3     1  UNL1        0.0788
     31 H           9.6696    3.4934    0.0000 H       1  UNL1        0.0611
     32 H           8.2335    2.6494    0.0000 H       1  UNL1        0.0624
     33 H          11.5717    1.7287    0.0000 H       1  UNL1        0.0271
     34 H          12.1941    2.3463    0.0000 H       1  UNL1        0.0271
     35 H          11.5765    2.9687    0.0000 H       1  UNL1        0.0271
     36 H          11.6132    2.9046    0.0000 H       1  UNL1        0.0271
     37 H          11.3895    3.7524    0.0000 H       1  UNL1        0.0271
     38 H          10.5417    3.5287    0.0000 H       1  UNL1        0.0271
     39 H           8.7901   -1.3159    0.0000 H       1  UNL1        0.0663
     40 H           5.5883    1.1370    0.0000 H       1  UNL1        0.1037
     41 H           4.3896    0.3966    0.0000 H       1  UNL1        0.0663
     42 H           4.4021   -2.8433    0.0000 H       1  UNL1        0.0692
     43 H           1.5375   -0.8196    0.0000 H       1  UNL1        0.1166
     44 H           1.5407   -1.6491    0.0000 H       1  UNL1        0.1166
     45 H           9.9021   -1.6959    0.0000 H       1  UNL1        0.0660
     46 H          10.5221   -2.3159    0.0000 H       1  UNL1        0.0660
     47 H          11.1421   -1.6959    0.0000 H       1  UNL1        0.0660
     48 H           5.5156   -3.2191    0.0000 H       1  UNL1        0.0660
     49 H           6.1380   -3.8367    0.0000 H       1  UNL1        0.0660
     50 H           6.7556   -3.2143    0.0000 H       1  UNL1        0.0660
@<TRIPOS>BOND
     1     1     8    1
     2     1    10    1
     3     2    11   ar
     4     2    22   ar
     5     3    17    1
     6     3    29    1
     7     4    25    1
     8     4    28    1
     9     5    26    1
    10     5    28    1
    11     6    20    2
    12     7    23    1
    13     7    30    1
    14     8    12    1
    15     8    15    1
    16     8    16    1
    17     9    10   ar
    18     9    11   ar
    19     9    14    1
    20    10    17   ar
    21    11    13   ar
    22    12    14    2
    23    12    31    1
    24    13    18   ar
    25    13    20   ar
    26    14    32    1
    27    15    36    1
    28    15    37    1
    29    15    38    1
    30    16    33    1
    31    16    34    1
    32    16    35    1
    33    17    18   ar
    34    18    39    1
    35    19    20   ar
    36    19    21    1
    37    19    22   ar
    38    21    23   ar
    39    21    24   ar
    40    22    40    1
    41    23    27   ar
    42    24    25   ar
    43    24    41    1
    44    25    26   ar
    45    26    27   ar
    46    27    42    1
    47    28    43    1
    48    28    44    1
    49    29    45    1
    50    29    46    1
    51    29    47    1
    52    30    48    1
    53    30    49    1
    54    30    50    1
