@<TRIPOS>MOLECULE
IMPHY004448
 35 36 0 0 0
SMALL
GASTEIGER

@<TRIPOS>ATOM
      1 O           2.8660   -0.9050    0.0000 O.3     1  UNL1       -0.4943
      2 O           4.5981   -3.9050    0.0000 O.3     1  UNL1       -0.5066
      3 O           3.7320    0.5950    0.0000 O.2     1  UNL1       -0.2872
      4 O           8.9282    1.5950    0.0000 O.3     1  UNL1       -0.5033
      5 O           8.9282    3.5950    0.0000 O.3     1  UNL1       -0.5033
      6 C           4.5981   -0.9050    0.0000 C.ar    1  UNL1        0.0635
      7 C           3.7320   -1.4050    0.0000 C.ar    1  UNL1        0.1343
      8 C           6.3301    2.0950    0.0000 C.ar    1  UNL1       -0.0212
      9 C           4.5981    0.0950    0.0000 C.2     1  UNL1        0.1896
     10 C           5.4641   -1.4050    0.0000 C.ar    1  UNL1       -0.0440
     11 C           3.7320   -2.4050    0.0000 C.ar    1  UNL1        0.0222
     12 C           5.4641    1.5950    0.0000 C.2     1  UNL1       -0.0508
     13 C           5.4641    0.5950    0.0000 C.2     1  UNL1       -0.0137
     14 C           4.5981   -2.9050    0.0000 C.ar    1  UNL1        0.1204
     15 C           5.4641   -2.4050    0.0000 C.ar    1  UNL1       -0.0193
     16 C           7.1962    1.5950    0.0000 C.ar    1  UNL1       -0.0094
     17 C           6.3301    3.0950    0.0000 C.ar    1  UNL1       -0.0509
     18 C           8.0622    2.0950    0.0000 C.ar    1  UNL1        0.1588
     19 C           8.0622    3.0950    0.0000 C.ar    1  UNL1        0.1582
     20 C           7.1962    3.5950    0.0000 C.ar    1  UNL1       -0.0160
     21 C           2.0000   -1.4050    0.0000 C.3     1  UNL1        0.0788
     22 H           6.0010   -1.0950    0.0000 H       1  UNL1        0.0627
     23 H           3.1951   -2.7150    0.0000 H       1  UNL1        0.0691
     24 H           4.9272    1.9050    0.0000 H       1  UNL1        0.0625
     25 H           6.0010    0.2850    0.0000 H       1  UNL1        0.0656
     26 H           7.1962    0.9750    0.0000 H       1  UNL1        0.0661
     27 H           6.0010   -2.7150    0.0000 H       1  UNL1        0.0654
     28 H           5.7932    3.4050    0.0000 H       1  UNL1        0.0625
     29 H           7.1962    4.2150    0.0000 H       1  UNL1        0.0655
     30 H           1.6900   -0.8681    0.0000 H       1  UNL1        0.0660
     31 H           1.4631   -1.7150    0.0000 H       1  UNL1        0.0660
     32 H           2.3100   -1.9419    0.0000 H       1  UNL1        0.0660
     33 H           5.1350   -4.2150    0.0000 H       1  UNL1        0.2921
     34 H           9.4651    1.9050    0.0000 H       1  UNL1        0.2923
     35 H           8.9282    4.2150    0.0000 H       1  UNL1        0.2923
@<TRIPOS>BOND
     1     1     7    1
     2     1    21    1
     3     2    14    1
     4     2    33    1
     5     3     9    2
     6     4    18    1
     7     4    34    1
     8     5    19    1
     9     5    35    1
    10     6     7   ar
    11     6     9    1
    12     6    10   ar
    13     7    11   ar
    14     8    12    1
    15     8    16   ar
    16     8    17   ar
    17     9    13    1
    18    10    15   ar
    19    10    22    1
    20    11    14   ar
    21    11    23    1
    22    12    13    2
    23    12    24    1
    24    13    25    1
    25    14    15   ar
    26    15    27    1
    27    16    18   ar
    28    16    26    1
    29    17    20   ar
    30    17    28    1
    31    18    19   ar
    32    19    20   ar
    33    20    29    1
    34    21    30    1
    35    21    31    1
    36    21    32    1
