@<TRIPOS>MOLECULE
IMPHY001749
 93 99 0 0 0
SMALL
GASTEIGER

@<TRIPOS>ATOM
      1 O           2.5836   -0.6520    0.0000 O.3     1  UNL1       -0.4522
      2 O           2.5836   -2.2615    0.0000 O.3     1  UNL1       -0.4489
      3 O           4.3958   -3.4567    0.0000 O.3     1  UNL1       -0.4913
      4 O          18.3512    0.4567    0.0000 O.3     1  UNL1       -0.5030
      5 O          16.6191    3.4567    0.0000 O.3     1  UNL1       -0.4913
      6 O          18.3512    2.4567    0.0000 O.3     1  UNL1       -0.4885
      7 O          10.5191    0.9999    0.0000 O.3     1  UNL1       -0.4523
      8 O          10.4959   -0.9999    0.0000 O.3     1  UNL1       -0.4914
      9 N           6.1799    0.5917    0.0000 N.3     1  UNL1       -0.2978
     10 N          14.8351   -0.5917    0.0000 N.3     1  UNL1       -0.2978
     11 C           6.1719   -0.4499    0.0000 C.3     1  UNL1        0.0398
     12 C          14.8431    0.4499    0.0000 C.3     1  UNL1        0.0398
     13 C           5.2619   -0.9567    0.0000 C.ar    1  UNL1       -0.0196
     14 C           4.3958   -0.4567    0.0000 C.ar    1  UNL1        0.0042
     15 C           5.2778    1.1125    0.0000 C.3     1  UNL1        0.0033
     16 C           4.3798    0.5848    0.0000 C.3     1  UNL1       -0.0110
     17 C           7.0321   -0.9599    0.0000 C.3     1  UNL1       -0.0079
     18 C          15.7531    0.9567    0.0000 C.ar    1  UNL1       -0.0196
     19 C          15.7372   -1.1125    0.0000 C.3     1  UNL1        0.0033
     20 C          16.6352   -0.5848    0.0000 C.3     1  UNL1       -0.0110
     21 C          16.6191    0.4567    0.0000 C.ar    1  UNL1        0.0038
     22 C          13.9829    0.9599    0.0000 C.3     1  UNL1       -0.0078
     23 C           3.5298   -0.9567    0.0000 C.ar    1  UNL1        0.1734
     24 C           5.2619   -1.9567    0.0000 C.ar    1  UNL1       -0.0111
     25 C           7.0479    1.0884    0.0000 C.3     1  UNL1       -0.0122
     26 C           3.5298   -1.9567    0.0000 C.ar    1  UNL1        0.2078
     27 C           7.9038   -0.4699    0.0000 C.ar    1  UNL1       -0.0453
     28 C           4.3958   -2.4567    0.0000 C.ar    1  UNL1        0.1656
     29 C          15.7531    1.9567    0.0000 C.ar    1  UNL1       -0.0111
     30 C          13.9671   -1.0884    0.0000 C.3     1  UNL1       -0.0122
     31 C          17.4852    0.9567    0.0000 C.ar    1  UNL1        0.1658
     32 C          13.1112    0.4699    0.0000 C.ar    1  UNL1       -0.0419
     33 C          16.6191    2.4567    0.0000 C.ar    1  UNL1        0.1655
     34 C          17.4852    1.9567    0.0000 C.ar    1  UNL1        0.2036
     35 C           2.0000   -1.4567    0.0000 C.3     1  UNL1        0.2334
     36 C           7.9154    0.5300    0.0000 C.ar    1  UNL1       -0.0550
     37 C           8.7640   -0.9799    0.0000 C.ar    1  UNL1       -0.0550
     38 C          12.2510    0.9799    0.0000 C.ar    1  UNL1       -0.0124
     39 C          13.0996   -0.5300    0.0000 C.ar    1  UNL1       -0.0548
     40 C          11.3792    0.4900    0.0000 C.ar    1  UNL1        0.1701
     41 C           8.7871    1.0200    0.0000 C.ar    1  UNL1       -0.0191
     42 C           9.6358   -0.4900    0.0000 C.ar    1  UNL1       -0.0191
     43 C           9.6473    0.5100    0.0000 C.ar    1  UNL1        0.1286
     44 C          12.2279   -1.0200    0.0000 C.ar    1  UNL1       -0.0160
     45 C          11.3677   -0.5100    0.0000 C.ar    1  UNL1        0.1621
     46 C           5.2619   -3.9567    0.0000 C.3     1  UNL1        0.0790
     47 C          15.7531    3.9567    0.0000 C.3     1  UNL1        0.0790
     48 C          18.3512    3.4567    0.0000 C.3     1  UNL1        0.0791
     49 C          10.4844   -1.9999    0.0000 C.3     1  UNL1        0.0790
     50 H           6.7118   -0.1451    0.0000 H       1  UNL1        0.0515
     51 H          14.3032    0.1451    0.0000 H       1  UNL1        0.0515
     52 H           5.6751    1.5885    0.0000 H       1  UNL1        0.0430
     53 H           4.8769    1.5854    0.0000 H       1  UNL1        0.0430
     54 H           4.1618    1.1652    0.0000 H       1  UNL1        0.0327
     55 H           3.7706    0.4693    0.0000 H       1  UNL1        0.0327
     56 H           6.6281   -1.4302    0.0000 H       1  UNL1        0.0332
     57 H           7.4251   -1.4394    0.0000 H       1  UNL1        0.0332
     58 H          15.3399   -1.5885    0.0000 H       1  UNL1        0.0430
     59 H          16.1381   -1.5854    0.0000 H       1  UNL1        0.0430
     60 H          16.8532   -1.1652    0.0000 H       1  UNL1        0.0327
     61 H          17.2444   -0.4693    0.0000 H       1  UNL1        0.0327
     62 H          14.3869    1.4302    0.0000 H       1  UNL1        0.0332
     63 H          13.5899    1.4394    0.0000 H       1  UNL1        0.0332
     64 H           5.7988   -2.2667    0.0000 H       1  UNL1        0.0659
     65 H           7.3558    0.5502    0.0000 H       1  UNL1        0.0391
     66 H           7.5860    1.3963    0.0000 H       1  UNL1        0.0391
     67 H           6.7399    1.6265    0.0000 H       1  UNL1        0.0391
     68 H          15.2162    2.2667    0.0000 H       1  UNL1        0.0659
     69 H          13.6592   -0.5502    0.0000 H       1  UNL1        0.0391
     70 H          13.4290   -1.3963    0.0000 H       1  UNL1        0.0391
     71 H          14.2751   -1.6265    0.0000 H       1  UNL1        0.0391
     72 H           1.5391   -1.0420    0.0000 H       1  UNL1        0.1166
     73 H           1.5391   -1.8715    0.0000 H       1  UNL1        0.1166
     74 H           7.3821    0.8462    0.0000 H       1  UNL1        0.0621
     75 H           8.7568   -1.5999    0.0000 H       1  UNL1        0.0621
     76 H          12.2582    1.5999    0.0000 H       1  UNL1        0.0658
     77 H          13.6329   -0.8462    0.0000 H       1  UNL1        0.0621
     78 H           8.7943    1.6399    0.0000 H       1  UNL1        0.0654
     79 H          10.1691   -0.8061    0.0000 H       1  UNL1        0.0654
     80 H          18.8881    0.7667    0.0000 H       1  UNL1        0.2923
     81 H          12.2207   -1.6399    0.0000 H       1  UNL1        0.0655
     82 H           4.9519   -4.4937    0.0000 H       1  UNL1        0.0660
     83 H           5.7988   -4.2667    0.0000 H       1  UNL1        0.0660
     84 H           5.5719   -3.4198    0.0000 H       1  UNL1        0.0660
     85 H          16.0631    4.4937    0.0000 H       1  UNL1        0.0660
     86 H          15.2162    4.2667    0.0000 H       1  UNL1        0.0660
     87 H          15.4431    3.4198    0.0000 H       1  UNL1        0.0660
     88 H          18.9712    3.4567    0.0000 H       1  UNL1        0.0660
     89 H          18.3512    4.0767    0.0000 H       1  UNL1        0.0660
     90 H          17.7312    3.4567    0.0000 H       1  UNL1        0.0660
     91 H           9.8644   -1.9927    0.0000 H       1  UNL1        0.0660
     92 H          10.4772   -2.6198    0.0000 H       1  UNL1        0.0660
     93 H          11.1043   -2.0070    0.0000 H       1  UNL1        0.0660
@<TRIPOS>BOND
     1     1    23    1
     2     1    35    1
     3     2    26    1
     4     2    35    1
     5     3    28    1
     6     3    46    1
     7     4    31    1
     8     4    80    1
     9     5    33    1
    10     5    47    1
    11     6    34    1
    12     6    48    1
    13     7    40    1
    14     7    43    1
    15     8    45    1
    16     8    49    1
    17     9    11    1
    18     9    15    1
    19     9    25    1
    20    10    12    1
    21    10    19    1
    22    10    30    1
    23    11    13    1
    24    11    17    1
    25    11    50    1
    26    12    18    1
    27    12    22    1
    28    12    51    1
    29    13    14   ar
    30    13    24   ar
    31    14    16    1
    32    14    23   ar
    33    15    16    1
    34    15    52    1
    35    15    53    1
    36    16    54    1
    37    16    55    1
    38    17    27    1
    39    17    56    1
    40    17    57    1
    41    18    21   ar
    42    18    29   ar
    43    19    20    1
    44    19    58    1
    45    19    59    1
    46    20    21    1
    47    20    60    1
    48    20    61    1
    49    21    31   ar
    50    22    32    1
    51    22    62    1
    52    22    63    1
    53    23    26   ar
    54    24    28   ar
    55    24    64    1
    56    25    65    1
    57    25    66    1
    58    25    67    1
    59    26    28   ar
    60    27    36   ar
    61    27    37   ar
    62    29    33   ar
    63    29    68    1
    64    30    69    1
    65    30    70    1
    66    30    71    1
    67    31    34   ar
    68    32    38   ar
    69    32    39   ar
    70    33    34   ar
    71    35    72    1
    72    35    73    1
    73    36    41   ar
    74    36    74    1
    75    37    42   ar
    76    37    75    1
    77    38    40   ar
    78    38    76    1
    79    39    44   ar
    80    39    77    1
    81    40    45   ar
    82    41    43   ar
    83    41    78    1
    84    42    43   ar
    85    42    79    1
    86    44    45   ar
    87    44    81    1
    88    46    82    1
    89    46    83    1
    90    46    84    1
    91    47    85    1
    92    47    86    1
    93    47    87    1
    94    48    88    1
    95    48    89    1
    96    48    90    1
    97    49    91    1
    98    49    92    1
    99    49    93    1
