@<TRIPOS>MOLECULE
IMPHY016516
 52 56 0 0 0
SMALL
GASTEIGER

@<TRIPOS>ATOM
      1 C           3.7853    0.9239    0.0000 C.3     1  UNL1       -0.0284
      2 C           3.4026    0.0000    0.0000 C.3     1  UNL1       -0.0284
      3 C           4.7092    1.3066    0.0000 C.3     1  UNL1       -0.0284
      4 C           3.7853   -0.9239    0.0000 C.3     1  UNL1       -0.0284
      5 C           5.6330    0.9239    0.0000 C.3     1  UNL1       -0.0284
      6 C           4.7092   -1.3066    0.0000 C.3     1  UNL1       -0.0284
      7 C           6.0157    0.0000    0.0000 C.3     1  UNL1       -0.0284
      8 C           5.6330   -0.9239    0.0000 C.3     1  UNL1       -0.0284
      9 C           2.7934    0.7935    0.0000 C.3     1  UNL1       -0.0281
     10 C           5.5027    1.9158    0.0000 C.3     1  UNL1       -0.0281
     11 C           3.9156   -1.9158    0.0000 C.3     1  UNL1       -0.0281
     12 C           6.6250   -0.7935    0.0000 C.3     1  UNL1       -0.0281
     13 C           2.6628    1.7850    0.0000 C.3     1  UNL1       -0.0593
     14 C           2.0000    0.1848    0.0000 C.3     1  UNL1       -0.0593
     15 C           6.4941    2.0463    0.0000 C.3     1  UNL1       -0.0593
     16 C           4.8939    2.7092    0.0000 C.3     1  UNL1       -0.0593
     17 C           2.9242   -2.0463    0.0000 C.3     1  UNL1       -0.0593
     18 C           4.5244   -2.7092    0.0000 C.3     1  UNL1       -0.0593
     19 C           7.4183   -0.1848    0.0000 C.3     1  UNL1       -0.0593
     20 C           6.7555   -1.7850    0.0000 C.3     1  UNL1       -0.0593
     21 H           3.6249    1.5228    0.0000 H       1  UNL1        0.0312
     22 H           2.8657   -0.3101    0.0000 H       1  UNL1        0.0312
     23 H           4.3991    1.8435    0.0000 H       1  UNL1        0.0312
     24 H           3.1864   -1.0843    0.0000 H       1  UNL1        0.0312
     25 H           6.2319    1.0843    0.0000 H       1  UNL1        0.0312
     26 H           5.0192   -1.8435    0.0000 H       1  UNL1        0.0312
     27 H           6.5526    0.3101    0.0000 H       1  UNL1        0.0312
     28 H           5.7934   -1.5228    0.0000 H       1  UNL1        0.0312
     29 H           3.2775    1.8659    0.0000 H       1  UNL1        0.0235
     30 H           2.5819    2.3997    0.0000 H       1  UNL1        0.0235
     31 H           2.0481    1.7041    0.0000 H       1  UNL1        0.0235
     32 H           1.6226    0.6767    0.0000 H       1  UNL1        0.0235
     33 H           1.5081   -0.1926    0.0000 H       1  UNL1        0.0235
     34 H           2.3774   -0.3071    0.0000 H       1  UNL1        0.0235
     35 H           6.5751    1.4316    0.0000 H       1  UNL1        0.0235
     36 H           7.1088    2.1272    0.0000 H       1  UNL1        0.0235
     37 H           6.4132    2.6610    0.0000 H       1  UNL1        0.0235
     38 H           5.3858    3.0866    0.0000 H       1  UNL1        0.0235
     39 H           4.5165    3.2010    0.0000 H       1  UNL1        0.0235
     40 H           4.4021    2.3317    0.0000 H       1  UNL1        0.0235
     41 H           2.8432   -1.4316    0.0000 H       1  UNL1        0.0235
     42 H           2.3095   -2.1272    0.0000 H       1  UNL1        0.0235
     43 H           3.0051   -2.6610    0.0000 H       1  UNL1        0.0235
     44 H           4.0325   -3.0866    0.0000 H       1  UNL1        0.0235
     45 H           4.9018   -3.2010    0.0000 H       1  UNL1        0.0235
     46 H           5.0162   -2.3317    0.0000 H       1  UNL1        0.0235
     47 H           7.7957   -0.6767    0.0000 H       1  UNL1        0.0235
     48 H           7.9102    0.1926    0.0000 H       1  UNL1        0.0235
     49 H           7.0409    0.3071    0.0000 H       1  UNL1        0.0235
     50 H           6.1408   -1.8659    0.0000 H       1  UNL1        0.0235
     51 H           6.8364   -2.3997    0.0000 H       1  UNL1        0.0235
     52 H           7.3702   -1.7041    0.0000 H       1  UNL1        0.0235
@<TRIPOS>BOND
     1     1     2    1
     2     1     3    1
     3     1     9    1
     4     1    21    1
     5     2     4    1
     6     2     9    1
     7     2    22    1
     8     3     5    1
     9     3    10    1
    10     3    23    1
    11     4     6    1
    12     4    11    1
    13     4    24    1
    14     5     7    1
    15     5    10    1
    16     5    25    1
    17     6     8    1
    18     6    11    1
    19     6    26    1
    20     7     8    1
    21     7    12    1
    22     7    27    1
    23     8    12    1
    24     8    28    1
    25     9    13    1
    26     9    14    1
    27    10    15    1
    28    10    16    1
    29    11    17    1
    30    11    18    1
    31    12    19    1
    32    12    20    1
    33    13    29    1
    34    13    30    1
    35    13    31    1
    36    14    32    1
    37    14    33    1
    38    14    34    1
    39    15    35    1
    40    15    36    1
    41    15    37    1
    42    16    38    1
    43    16    39    1
    44    16    40    1
    45    17    41    1
    46    17    42    1
    47    17    43    1
    48    18    44    1
    49    18    45    1
    50    18    46    1
    51    19    47    1
    52    19    48    1
    53    19    49    1
    54    20    50    1
    55    20    51    1
    56    20    52    1
