@<TRIPOS>MOLECULE
IMPHY015458
 78 77 0 0 0
SMALL
GASTEIGER

@<TRIPOS>ATOM
      1 C           8.9282    0.2500    0.0000 C.3     1  UNL1       -0.0531
      2 C           9.7942   -0.2500    0.0000 C.3     1  UNL1       -0.0531
      3 C           8.0622   -0.2500    0.0000 C.3     1  UNL1       -0.0531
      4 C          10.6603    0.2500    0.0000 C.3     1  UNL1       -0.0531
      5 C           7.1962    0.2500    0.0000 C.3     1  UNL1       -0.0531
      6 C          11.5263   -0.2500    0.0000 C.3     1  UNL1       -0.0531
      7 C           6.3301   -0.2500    0.0000 C.3     1  UNL1       -0.0531
      8 C          12.3923    0.2500    0.0000 C.3     1  UNL1       -0.0530
      9 C           5.4641    0.2500    0.0000 C.3     1  UNL1       -0.0531
     10 C          13.2583   -0.2500    0.0000 C.3     1  UNL1       -0.0528
     11 C           4.5981   -0.2500    0.0000 C.3     1  UNL1       -0.0531
     12 C          14.1244    0.2500    0.0000 C.3     1  UNL1       -0.0496
     13 C           3.7320    0.2500    0.0000 C.3     1  UNL1       -0.0533
     14 C          14.9904   -0.2500    0.0000 C.3     1  UNL1       -0.0348
     15 C          19.3205    0.2500    0.0000 C.3     1  UNL1       -0.0528
     16 C          20.1865   -0.2500    0.0000 C.3     1  UNL1       -0.0530
     17 C          18.4545   -0.2500    0.0000 C.3     1  UNL1       -0.0496
     18 C          21.0526    0.2500    0.0000 C.3     1  UNL1       -0.0531
     19 C           2.8660   -0.2500    0.0000 C.3     1  UNL1       -0.0559
     20 C          17.5885    0.2500    0.0000 C.3     1  UNL1       -0.0348
     21 C          21.9186   -0.2500    0.0000 C.3     1  UNL1       -0.0533
     22 C          15.8564    0.2500    0.0000 C.2     1  UNL1       -0.0879
     23 C          16.7224   -0.2500    0.0000 C.2     1  UNL1       -0.0879
     24 C          22.7846    0.2500    0.0000 C.3     1  UNL1       -0.0559
     25 C           2.0000    0.2500    0.0000 C.3     1  UNL1       -0.0653
     26 C          23.6506   -0.2500    0.0000 C.3     1  UNL1       -0.0653
     27 H           9.3267    0.7249    0.0000 H       1  UNL1        0.0265
     28 H           8.5297    0.7249    0.0000 H       1  UNL1        0.0265
     29 H           9.3957   -0.7249    0.0000 H       1  UNL1        0.0265
     30 H          10.1928   -0.7249    0.0000 H       1  UNL1        0.0265
     31 H           7.6636   -0.7249    0.0000 H       1  UNL1        0.0265
     32 H           8.4607   -0.7249    0.0000 H       1  UNL1        0.0265
     33 H          11.0588    0.7249    0.0000 H       1  UNL1        0.0265
     34 H          10.2617    0.7249    0.0000 H       1  UNL1        0.0265
     35 H           7.5947    0.7249    0.0000 H       1  UNL1        0.0265
     36 H           6.7976    0.7249    0.0000 H       1  UNL1        0.0265
     37 H          11.1278   -0.7249    0.0000 H       1  UNL1        0.0265
     38 H          11.9248   -0.7249    0.0000 H       1  UNL1        0.0265
     39 H           5.9316   -0.7249    0.0000 H       1  UNL1        0.0265
     40 H           6.7287   -0.7249    0.0000 H       1  UNL1        0.0265
     41 H          12.7908    0.7249    0.0000 H       1  UNL1        0.0265
     42 H          11.9938    0.7249    0.0000 H       1  UNL1        0.0265
     43 H           5.8626    0.7249    0.0000 H       1  UNL1        0.0265
     44 H           5.0656    0.7249    0.0000 H       1  UNL1        0.0265
     45 H          12.8598   -0.7249    0.0000 H       1  UNL1        0.0265
     46 H          13.6569   -0.7249    0.0000 H       1  UNL1        0.0265
     47 H           4.1996   -0.7249    0.0000 H       1  UNL1        0.0265
     48 H           4.9966   -0.7249    0.0000 H       1  UNL1        0.0265
     49 H          14.5229    0.7249    0.0000 H       1  UNL1        0.0268
     50 H          13.7258    0.7249    0.0000 H       1  UNL1        0.0268
     51 H           4.1306    0.7249    0.0000 H       1  UNL1        0.0265
     52 H           3.3335    0.7249    0.0000 H       1  UNL1        0.0265
     53 H          14.5919   -0.7249    0.0000 H       1  UNL1        0.0307
     54 H          15.3889   -0.7249    0.0000 H       1  UNL1        0.0307
     55 H          19.7190    0.7249    0.0000 H       1  UNL1        0.0265
     56 H          18.9220    0.7249    0.0000 H       1  UNL1        0.0265
     57 H          19.7880   -0.7249    0.0000 H       1  UNL1        0.0265
     58 H          20.5851   -0.7249    0.0000 H       1  UNL1        0.0265
     59 H          18.0560   -0.7249    0.0000 H       1  UNL1        0.0268
     60 H          18.8530   -0.7249    0.0000 H       1  UNL1        0.0268
     61 H          21.4511    0.7249    0.0000 H       1  UNL1        0.0265
     62 H          20.6540    0.7249    0.0000 H       1  UNL1        0.0265
     63 H           2.4675   -0.7249    0.0000 H       1  UNL1        0.0263
     64 H           3.2646   -0.7249    0.0000 H       1  UNL1        0.0263
     65 H          17.9870    0.7249    0.0000 H       1  UNL1        0.0307
     66 H          17.1899    0.7249    0.0000 H       1  UNL1        0.0307
     67 H          21.5201   -0.7249    0.0000 H       1  UNL1        0.0265
     68 H          22.3171   -0.7249    0.0000 H       1  UNL1        0.0265
     69 H          15.8564    0.8700    0.0000 H       1  UNL1        0.0569
     70 H          16.7224   -0.8700    0.0000 H       1  UNL1        0.0569
     71 H          23.1831    0.7249    0.0000 H       1  UNL1        0.0263
     72 H          22.3861    0.7249    0.0000 H       1  UNL1        0.0263
     73 H           2.3100    0.7869    0.0000 H       1  UNL1        0.0230
     74 H           1.4631    0.5600    0.0000 H       1  UNL1        0.0230
     75 H           1.6900   -0.2869    0.0000 H       1  UNL1        0.0230
     76 H          23.3406   -0.7869    0.0000 H       1  UNL1        0.0230
     77 H          24.1876   -0.5600    0.0000 H       1  UNL1        0.0230
     78 H          23.9606    0.2869    0.0000 H       1  UNL1        0.0230
@<TRIPOS>BOND
     1     1     2    1
     2     1     3    1
     3     1    27    1
     4     1    28    1
     5     2     4    1
     6     2    29    1
     7     2    30    1
     8     3     5    1
     9     3    31    1
    10     3    32    1
    11     4     6    1
    12     4    33    1
    13     4    34    1
    14     5     7    1
    15     5    35    1
    16     5    36    1
    17     6     8    1
    18     6    37    1
    19     6    38    1
    20     7     9    1
    21     7    39    1
    22     7    40    1
    23     8    10    1
    24     8    41    1
    25     8    42    1
    26     9    11    1
    27     9    43    1
    28     9    44    1
    29    10    12    1
    30    10    45    1
    31    10    46    1
    32    11    13    1
    33    11    47    1
    34    11    48    1
    35    12    14    1
    36    12    49    1
    37    12    50    1
    38    13    19    1
    39    13    51    1
    40    13    52    1
    41    14    22    1
    42    14    53    1
    43    14    54    1
    44    15    16    1
    45    15    17    1
    46    15    55    1
    47    15    56    1
    48    16    18    1
    49    16    57    1
    50    16    58    1
    51    17    20    1
    52    17    59    1
    53    17    60    1
    54    18    21    1
    55    18    61    1
    56    18    62    1
    57    19    25    1
    58    19    63    1
    59    19    64    1
    60    20    23    1
    61    20    65    1
    62    20    66    1
    63    21    24    1
    64    21    67    1
    65    21    68    1
    66    22    23    2
    67    22    69    1
    68    23    70    1
    69    24    26    1
    70    24    71    1
    71    24    72    1
    72    25    73    1
    73    25    74    1
    74    25    75    1
    75    26    76    1
    76    26    77    1
    77    26    78    1
