@<TRIPOS>MOLECULE
IMPHY008868
 73 77 0 0 0
SMALL
GASTEIGER

@<TRIPOS>ATOM
      1 O           6.9343    0.0950    0.0000 O.3     1  UNL1       -0.3313
      2 O           4.3362   -2.4050    0.0000 O.3     1  UNL1       -0.3405
      3 O           6.0682   -2.4050    0.0000 O.3     1  UNL1       -0.3460
      4 O           7.8003   -2.4050    0.0000 O.3     1  UNL1       -0.3865
      5 O           9.5323   -1.4050    0.0000 O.3     1  UNL1       -0.3864
      6 O           7.8003    1.5950    0.0000 O.3     1  UNL1       -0.4532
      7 O           6.0682   -4.4050    0.0000 O.3     1  UNL1       -0.3841
      8 O           9.5323    0.5950    0.0000 O.3     1  UNL1       -0.3829
      9 O           4.3362   -5.4050    0.0000 O.3     1  UNL1       -0.3864
     10 O           2.6042   -4.4050    0.0000 O.3     1  UNL1       -0.3865
     11 O           2.6042   -1.4050    0.0000 O.3     1  UNL1       -0.3924
     12 O           6.0682    3.5950    0.0000 O.2     1  UNL1       -0.4507
     13 O           6.0682    0.5950    0.0000 O.2     1  UNL1       -0.2830
     14 O           4.3198    0.5604    0.0000 O.3     1  UNL1       -0.5058
     15 O           2.5381    3.6192    0.0000 O.3     1  UNL1       -0.5065
     16 O          10.3984    5.0950    0.0000 O.3     1  UNL1       -0.5068
     17 C           6.9343   -0.9050    0.0000 C.3     1  UNL1        0.1144
     18 C           7.8003   -1.4050    0.0000 C.3     1  UNL1        0.1120
     19 C           8.6663   -0.9050    0.0000 C.3     1  UNL1        0.1152
     20 C           5.2022   -3.9050    0.0000 C.3     1  UNL1        0.1341
     21 C           8.6663    0.0950    0.0000 C.3     1  UNL1        0.1454
     22 C           4.3362   -4.4050    0.0000 C.3     1  UNL1        0.1141
     23 C           5.2022   -2.9050    0.0000 C.3     1  UNL1        0.1880
     24 C           3.4702   -3.9050    0.0000 C.3     1  UNL1        0.1119
     25 C           3.4702   -2.9050    0.0000 C.3     1  UNL1        0.1130
     26 C           7.8003    0.5950    0.0000 C.3     1  UNL1        0.2311
     27 C           6.0682   -1.4050    0.0000 C.3     1  UNL1        0.0796
     28 C           2.6042   -2.4050    0.0000 C.3     1  UNL1        0.0730
     29 C           6.9343    2.0950    0.0000 C.ar    1  UNL1        0.2138
     30 C           6.9343    3.0950    0.0000 C.ar    1  UNL1        0.1809
     31 C           6.0682    1.5950    0.0000 C.ar    1  UNL1        0.2382
     32 C           5.2022    2.0950    0.0000 C.ar    1  UNL1        0.1092
     33 C           5.2022    3.0950    0.0000 C.ar    1  UNL1        0.1465
     34 C           7.8003    3.5950    0.0000 C.ar    1  UNL1        0.0213
     35 C           4.3083    1.5603    0.0000 C.ar    1  UNL1        0.1348
     36 C           4.3083    3.6297    0.0000 C.ar    1  UNL1        0.0231
     37 C           7.8003    4.5950    0.0000 C.ar    1  UNL1       -0.0475
     38 C           8.6663    3.0950    0.0000 C.ar    1  UNL1       -0.0475
     39 C           3.4022    2.0742    0.0000 C.ar    1  UNL1        0.0223
     40 C           3.4022    3.1158    0.0000 C.ar    1  UNL1        0.1239
     41 C           8.6663    5.0950    0.0000 C.ar    1  UNL1       -0.0195
     42 C           9.5323    3.5950    0.0000 C.ar    1  UNL1       -0.0195
     43 C           9.5323    4.5950    0.0000 C.ar    1  UNL1        0.1169
     44 H           6.3973   -0.5950    0.0000 H       1  UNL1        0.0647
     45 H           8.3372   -1.7150    0.0000 H       1  UNL1        0.0647
     46 H           9.2033   -0.5950    0.0000 H       1  UNL1        0.0648
     47 H           5.7392   -3.5950    0.0000 H       1  UNL1        0.0671
     48 H           8.6663    0.7150    0.0000 H       1  UNL1        0.0683
     49 H           3.7993   -4.7150    0.0000 H       1  UNL1        0.0648
     50 H           5.2022   -2.2850    0.0000 H       1  UNL1        0.0937
     51 H           2.9332   -3.5950    0.0000 H       1  UNL1        0.0647
     52 H           3.4702   -2.2850    0.0000 H       1  UNL1        0.0647
     53 H           7.2634    0.9050    0.0000 H       1  UNL1        0.1084
     54 H           5.8562   -0.8224    0.0000 H       1  UNL1        0.0587
     55 H           5.4577   -1.5127    0.0000 H       1  UNL1        0.0587
     56 H           1.9936   -2.2973    0.0000 H       1  UNL1        0.0584
     57 H           2.3921   -2.9876    0.0000 H       1  UNL1        0.0584
     58 H           7.2634   -2.7150    0.0000 H       1  UNL1        0.2100
     59 H           9.5323   -2.0250    0.0000 H       1  UNL1        0.2100
     60 H           6.6052   -4.0950    0.0000 H       1  UNL1        0.2101
     61 H          10.0693    0.2850    0.0000 H       1  UNL1        0.2102
     62 H           3.7993   -5.7150    0.0000 H       1  UNL1        0.2100
     63 H           2.0672   -4.0950    0.0000 H       1  UNL1        0.2100
     64 H           2.0672   -1.0950    0.0000 H       1  UNL1        0.2095
     65 H           4.3154    4.2496    0.0000 H       1  UNL1        0.0691
     66 H           7.2634    4.9050    0.0000 H       1  UNL1        0.0626
     67 H           8.6663    2.4750    0.0000 H       1  UNL1        0.0626
     68 H           2.8665    1.7621    0.0000 H       1  UNL1        0.0691
     69 H           8.6663    5.7150    0.0000 H       1  UNL1        0.0654
     70 H          10.0693    3.2850    0.0000 H       1  UNL1        0.0654
     71 H           3.7865    0.2442    0.0000 H       1  UNL1        0.2922
     72 H           2.0000    3.3112    0.0000 H       1  UNL1        0.2921
     73 H          10.3984    5.7150    0.0000 H       1  UNL1        0.2921
@<TRIPOS>BOND
     1     1    17    1
     2     1    26    1
     3     2    23    1
     4     2    25    1
     5    23     3    1
     6     3    27    1
     7    18     4    1
     8     4    58    1
     9    19     5    1
    10     5    59    1
    11    26     6    1
    12     6    29    1
    13    20     7    1
    14     7    60    1
    15    21     8    1
    16     8    61    1
    17    22     9    1
    18     9    62    1
    19    24    10    1
    20    10    63    1
    21    11    28    1
    22    11    64    1
    23    12    30   ar
    24    12    33   ar
    25    13    31    2
    26    14    35    1
    27    14    71    1
    28    15    40    1
    29    15    72    1
    30    16    43    1
    31    16    73    1
    32    17    18    1
    33    17    27    1
    34    17    44    1
    35    18    19    1
    36    18    45    1
    37    19    21    1
    38    19    46    1
    39    20    22    1
    40    20    23    1
    41    20    47    1
    42    21    26    1
    43    21    48    1
    44    22    24    1
    45    22    49    1
    46    23    50    1
    47    24    25    1
    48    24    51    1
    49    25    28    1
    50    25    52    1
    51    26    53    1
    52    27    54    1
    53    27    55    1
    54    28    56    1
    55    28    57    1
    56    29    30   ar
    57    29    31   ar
    58    30    34    1
    59    31    32   ar
    60    32    33   ar
    61    32    35   ar
    62    33    36   ar
    63    34    37   ar
    64    34    38   ar
    65    35    39   ar
    66    36    40   ar
    67    36    65    1
    68    37    41   ar
    69    37    66    1
    70    38    42   ar
    71    38    67    1
    72    39    40   ar
    73    39    68    1
    74    41    43   ar
    75    41    69    1
    76    42    43   ar
    77    42    70    1
