@<TRIPOS>MOLECULE
IMPHY011429
 58 61 0 0 0
SMALL
GASTEIGER

@<TRIPOS>ATOM
      1 O           8.9809    1.9851    0.0000 O.3     1  UNL1       -0.4569
      2 O           6.8671   -1.2400    0.0000 O.3     1  UNL1       -0.3411
      3 O           5.1843    3.6700    0.0000 O.3     1  UNL1       -0.3875
      4 O           5.1350   -1.2400    0.0000 O.3     1  UNL1       -0.3405
      5 O          10.3457    3.1220    0.0000 O.2     1  UNL1       -0.2453
      6 O           6.8671   -3.2400    0.0000 O.3     1  UNL1       -0.3841
      7 O           5.1350   -4.2400    0.0000 O.3     1  UNL1       -0.3864
      8 O           3.4030   -3.2400    0.0000 O.3     1  UNL1       -0.3865
      9 O           2.5369   -1.7400    0.0000 O.3     1  UNL1       -0.3924
     10 C           7.3671    1.2898    0.0000 C.3     1  UNL1        0.0266
     11 C           6.3671    1.2898    0.0000 C.3     1  UNL1       -0.0051
     12 C           7.9906    2.0716    0.0000 C.3     1  UNL1        0.1175
     13 C           6.0623    0.3436    0.0000 C.3     1  UNL1       -0.0154
     14 C           7.7680    3.0466    0.0000 C.3     1  UNL1        0.0307
     15 C           6.8671   -0.2400    0.0000 C.3     1  UNL1        0.0835
     16 C           7.6718    0.3436    0.0000 C.2     1  UNL1       -0.0410
     17 C           5.7436    2.0716    0.0000 C.2     1  UNL1       -0.0447
     18 C           6.8671    3.4804    0.0000 C.3     1  UNL1       -0.0126
     19 C           5.9661    3.0466    0.0000 C.3     1  UNL1        0.0770
     20 C           8.6227    3.5542    0.0000 C.2     1  UNL1        0.0362
     21 C           6.0010   -1.7400    0.0000 C.3     1  UNL1        0.1886
     22 C           9.3708    2.8995    0.0000 C.2     1  UNL1        0.3353
     23 C           8.6223    0.0329    0.0000 C.2     1  UNL1       -0.0966
     24 C           4.7686    1.8491    0.0000 C.2     1  UNL1       -0.0967
     25 C           6.0010   -2.7400    0.0000 C.3     1  UNL1        0.1341
     26 C           5.1350   -3.2400    0.0000 C.3     1  UNL1        0.1141
     27 C           4.2690   -2.7400    0.0000 C.3     1  UNL1        0.1119
     28 C           4.2690   -1.7400    0.0000 C.3     1  UNL1        0.1130
     29 C           8.7141    4.5500    0.0000 C.2     1  UNL1       -0.0883
     30 C           3.4030   -1.2400    0.0000 C.3     1  UNL1        0.0730
     31 H           8.2032    1.1369    0.0000 H       1  UNL1        0.0388
     32 H           5.5309    1.1369    0.0000 H       1  UNL1        0.0354
     33 H           8.3256    1.2905    0.0000 H       1  UNL1        0.0746
     34 H           5.4954    0.5946    0.0000 H       1  UNL1        0.0299
     35 H           5.7531   -0.1938    0.0000 H       1  UNL1        0.0299
     36 H           7.7310    3.8958    0.0000 H       1  UNL1        0.0388
     37 H           7.4194   -0.5217    0.0000 H       1  UNL1        0.0644
     38 H           7.2536    3.9652    0.0000 H       1  UNL1        0.0300
     39 H           6.4805    3.9652    0.0000 H       1  UNL1        0.0300
     40 H           6.0355    3.6627    0.0000 H       1  UNL1        0.0640
     41 H           6.0010   -1.1200    0.0000 H       1  UNL1        0.0938
     42 H           8.7502   -0.5738    0.0000 H       1  UNL1        0.0535
     43 H           9.0838    0.4470    0.0000 H       1  UNL1        0.0535
     44 H           6.0010   -3.3600    0.0000 H       1  UNL1        0.0671
     45 H           4.3469    2.3036    0.0000 H       1  UNL1        0.0535
     46 H           4.5859    1.2567    0.0000 H       1  UNL1        0.0535
     47 H           4.5981   -3.5500    0.0000 H       1  UNL1        0.0648
     48 H           3.7320   -2.4300    0.0000 H       1  UNL1        0.0647
     49 H           4.2690   -1.1200    0.0000 H       1  UNL1        0.0647
     50 H           5.2767    4.2831    0.0000 H       1  UNL1        0.2102
     51 H           9.2771    4.8097    0.0000 H       1  UNL1        0.0540
     52 H           8.2077    4.9078    0.0000 H       1  UNL1        0.0540
     53 H           3.8015   -0.7651    0.0000 H       1  UNL1        0.0584
     54 H           3.0044   -0.7651    0.0000 H       1  UNL1        0.0584
     55 H           6.8671   -3.8600    0.0000 H       1  UNL1        0.2101
     56 H           4.5981   -4.5500    0.0000 H       1  UNL1        0.2100
     57 H           3.4030   -3.8600    0.0000 H       1  UNL1        0.2100
     58 H           2.0000   -1.4300    0.0000 H       1  UNL1        0.2095
@<TRIPOS>BOND
     1     1    12    1
     2     1    22    1
     3    15     2    1
     4    21     2    1
     5    19     3    1
     6     3    50    1
     7     4    21    1
     8     4    28    1
     9     5    22    2
    10    25     6    1
    11     6    55    1
    12    26     7    1
    13     7    56    1
    14    27     8    1
    15     8    57    1
    16     9    30    1
    17     9    58    1
    18    10    11    1
    19    10    12    1
    20    10    16    1
    21    10    31    1
    22    11    13    1
    23    11    17    1
    24    11    32    1
    25    12    14    1
    26    12    33    1
    27    13    15    1
    28    13    34    1
    29    13    35    1
    30    14    18    1
    31    14    20    1
    32    14    36    1
    33    15    16    1
    34    15    37    1
    35    16    23    2
    36    17    19    1
    37    17    24    2
    38    18    19    1
    39    18    38    1
    40    18    39    1
    41    19    40    1
    42    20    22    1
    43    20    29    2
    44    21    25    1
    45    21    41    1
    46    23    42    1
    47    23    43    1
    48    24    45    1
    49    24    46    1
    50    25    26    1
    51    25    44    1
    52    26    27    1
    53    26    47    1
    54    27    28    1
    55    27    48    1
    56    28    30    1
    57    28    49    1
    58    29    51    1
    59    29    52    1
    60    30    53    1
    61    30    54    1
