@<TRIPOS>MOLECULE
IMPHY006783
 74 76 0 0 0
SMALL
GASTEIGER

@<TRIPOS>ATOM
      1 O           2.6126    1.6042    0.0000 O.3     1  UNL1       -0.3885
      2 O           8.9921    1.7353    0.0000 O.3     1  UNL1       -0.5055
      3 O           7.5934   -1.4339    0.0000 O.3     1  UNL1       -0.5055
      4 O          11.0374   -1.0606    0.0000 O.3     1  UNL1       -0.5051
      5 O          10.3380   -2.6452    0.0000 O.2     1  UNL1       -0.2955
      6 O          11.7367    0.5240    0.0000 O.2     1  UNL1       -0.2955
      7 C           6.5708   -0.0360    0.0000 C.3     1  UNL1       -0.0037
      8 C           5.6311   -1.3454    0.0000 C.3     1  UNL1       -0.0167
      9 C           5.6261   -0.3454    0.0000 C.2     1  UNL1       -0.0633
     10 C           7.1584   -0.8378    0.0000 C.3     1  UNL1       -0.0428
     11 C           6.5788   -1.6454    0.0000 C.3     1  UNL1       -0.0454
     12 C           7.3779    0.5545    0.0000 C.3     1  UNL1        0.0004
     13 C           4.8524   -1.9728    0.0000 C.3     1  UNL1       -0.0373
     14 C           3.8674    0.0468    0.0000 C.3     1  UNL1        0.0057
     15 C           3.8764   -1.7551    0.0000 C.3     1  UNL1       -0.0493
     16 C           4.8412    0.2742    0.0000 C.2     1  UNL1       -0.0782
     17 C           6.2587    0.9141    0.0000 C.3     1  UNL1       -0.0553
     18 C           3.4380   -0.8563    0.0000 C.3     1  UNL1       -0.0439
     19 C           7.2701    1.5486    0.0000 C.3     1  UNL1       -0.0428
     20 C           8.2928    0.1507    0.0000 C.ar    1  UNL1        0.0409
     21 C           3.2400    0.8255    0.0000 C.3     1  UNL1        0.0667
     22 C           5.0798   -2.9466    0.0000 C.3     1  UNL1       -0.0619
     23 C           6.3553    1.9524    0.0000 C.3     1  UNL1       -0.0461
     24 C           2.4613    0.1981    0.0000 C.3     1  UNL1       -0.0358
     25 C           4.0187    1.4529    0.0000 C.3     1  UNL1       -0.0358
     26 C           9.0999    0.7411    0.0000 C.ar    1  UNL1        0.1375
     27 C           8.4005   -0.8435    0.0000 C.ar    1  UNL1        0.1375
     28 C           6.2475    2.9466    0.0000 C.3     1  UNL1       -0.0626
     29 C           5.5482    1.3620    0.0000 C.3     1  UNL1       -0.0626
     30 C          10.0147    0.3374    0.0000 C.ar    1  UNL1        0.0980
     31 C           9.3154   -1.2472    0.0000 C.ar    1  UNL1        0.0980
     32 C          10.1225   -0.6568    0.0000 C.ar    1  UNL1        0.1443
     33 C           9.4232   -2.2414    0.0000 C.2     1  UNL1        0.1573
     34 C          10.8218    0.9278    0.0000 C.2     1  UNL1        0.1573
     35 H           6.1304   -0.9778    0.0000 H       1  UNL1        0.0348
     36 H           7.6213   -1.2502    0.0000 H       1  UNL1        0.0274
     37 H           7.6172   -0.4207    0.0000 H       1  UNL1        0.0274
     38 H           6.3306   -2.2136    0.0000 H       1  UNL1        0.0271
     39 H           7.1177   -1.9519    0.0000 H       1  UNL1        0.0271
     40 H           7.8783    0.9205    0.0000 H       1  UNL1        0.0360
     41 H           5.4386   -2.1746    0.0000 H       1  UNL1        0.0304
     42 H           3.2516   -0.0257    0.0000 H       1  UNL1        0.0371
     43 H           3.2726   -1.8961    0.0000 H       1  UNL1        0.0268
     44 H           3.8794   -2.3751    0.0000 H       1  UNL1        0.0268
     45 H           4.9761    0.8793    0.0000 H       1  UNL1        0.0576
     46 H           6.8477    1.1076    0.0000 H       1  UNL1        0.0238
     47 H           6.0652    1.5031    0.0000 H       1  UNL1        0.0238
     48 H           5.6696    0.7206    0.0000 H       1  UNL1        0.0238
     49 H           2.9513   -0.4722    0.0000 H       1  UNL1        0.0272
     50 H           2.9552   -1.2453    0.0000 H       1  UNL1        0.0272
     51 H           7.8888    1.5074    0.0000 H       1  UNL1        0.0274
     52 H           7.4182    2.1507    0.0000 H       1  UNL1        0.0274
     53 H           4.4760   -3.0875    0.0000 H       1  UNL1        0.0233
     54 H           5.2207   -3.5503    0.0000 H       1  UNL1        0.0233
     55 H           5.6835   -2.8056    0.0000 H       1  UNL1        0.0233
     56 H           6.4221    1.3360    0.0000 H       1  UNL1        0.0296
     57 H           2.0723    0.6809    0.0000 H       1  UNL1        0.0257
     58 H           1.9785   -0.1908    0.0000 H       1  UNL1        0.0257
     59 H           2.8502   -0.2847    0.0000 H       1  UNL1        0.0257
     60 H           4.4077    0.9701    0.0000 H       1  UNL1        0.0257
     61 H           4.5015    1.8419    0.0000 H       1  UNL1        0.0257
     62 H           3.6297    1.9357    0.0000 H       1  UNL1        0.0257
     63 H           6.8639    3.0134    0.0000 H       1  UNL1        0.0232
     64 H           6.1807    3.5630    0.0000 H       1  UNL1        0.0232
     65 H           5.6311    2.8798    0.0000 H       1  UNL1        0.0232
     66 H           5.1821    1.8624    0.0000 H       1  UNL1        0.0232
     67 H           5.0478    0.9959    0.0000 H       1  UNL1        0.0232
     68 H           5.9142    0.8616    0.0000 H       1  UNL1        0.0232
     69 H           2.0000    1.5088    0.0000 H       1  UNL1        0.2102
     70 H           9.4925    2.1014    0.0000 H       1  UNL1        0.2922
     71 H           7.6602   -2.0503    0.0000 H       1  UNL1        0.2922
     72 H           8.9228   -2.6075    0.0000 H       1  UNL1        0.1084
     73 H          10.7550    1.5442    0.0000 H       1  UNL1        0.1084
     74 H          11.5378   -0.6945    0.0000 H       1  UNL1        0.2922
@<TRIPOS>BOND
     1     1    21    1
     2     1    69    1
     3     2    26    1
     4     2    70    1
     5     3    27    1
     6     3    71    1
     7     4    32    1
     8     4    74    1
     9     5    33    2
    10     6    34    2
    11     7     9    1
    12     7    10    1
    13     7    12    1
    14     7    17    1
    15     8     9    1
    16     8    11    1
    17     8    13    1
    18     8    35    1
    19     9    16    2
    20    10    11    1
    21    10    36    1
    22    10    37    1
    23    11    38    1
    24    11    39    1
    25    12    19    1
    26    12    20    1
    27    12    40    1
    28    13    15    1
    29    13    22    1
    30    13    41    1
    31    14    16    1
    32    14    18    1
    33    14    21    1
    34    14    42    1
    35    15    18    1
    36    15    43    1
    37    15    44    1
    38    16    45    1
    39    17    46    1
    40    17    47    1
    41    17    48    1
    42    18    49    1
    43    18    50    1
    44    19    23    1
    45    19    51    1
    46    19    52    1
    47    20    26   ar
    48    20    27   ar
    49    21    24    1
    50    21    25    1
    51    22    53    1
    52    22    54    1
    53    22    55    1
    54    23    28    1
    55    23    29    1
    56    23    56    1
    57    24    57    1
    58    24    58    1
    59    24    59    1
    60    25    60    1
    61    25    61    1
    62    25    62    1
    63    26    30   ar
    64    27    31   ar
    65    28    63    1
    66    28    64    1
    67    28    65    1
    68    29    66    1
    69    29    67    1
    70    29    68    1
    71    30    32   ar
    72    30    34    1
    73    31    32   ar
    74    31    33    1
    75    33    72    1
    76    34    73    1
