@<TRIPOS>MOLECULE
IMPHY005228
 42 43 0 0 0
SMALL
GASTEIGER

@<TRIPOS>ATOM
      1 S           2.8660   -0.9050    0.0000 S.3     1  UNL1       -0.0008
      2 O           6.3301   -0.9050    0.0000 O.3     1  UNL1       -0.3312
      3 O           4.5981   -2.9050    0.0000 O.3     1  UNL1       -0.3865
      4 O           8.0622   -0.9050    0.0000 O.3     1  UNL1       -0.4535
      5 O           6.3301   -3.9050    0.0000 O.3     1  UNL1       -0.3864
      6 O           8.0622   -2.9050    0.0000 O.3     1  UNL1       -0.3829
      7 O           3.7320   -1.4050    0.0000 O.3     1  UNL1       -0.2520
      8 O           9.7942    0.0950    0.0000 O.3     1  UNL1       -0.5032
      9 O           6.3301    0.0950    0.0000 O.3     1  UNL1       -0.5032
     10 O           2.0000   -0.4050    0.0000 O.co2   1  UNL1       -0.2682
     11 O           2.3660   -1.7710    0.0000 O.2     1  UNL1       -0.3452
     12 O           3.3660   -0.0390    0.0000 O.2     1  UNL1       -0.3452
     13 O           8.9282    3.5950    0.0000 O.3     1  UNL1       -0.4771
     14 O           7.1962    3.5950    0.0000 O.2     1  UNL1       -0.2451
     15 C           5.4641   -2.4050    0.0000 C.3     1  UNL1        0.1121
     16 C           6.3301   -2.9050    0.0000 C.3     1  UNL1        0.1152
     17 C           5.4641   -1.4050    0.0000 C.3     1  UNL1        0.1165
     18 C           7.1962   -2.4050    0.0000 C.3     1  UNL1        0.1454
     19 C           7.1962   -1.4050    0.0000 C.3     1  UNL1        0.2311
     20 C           4.5981   -0.9050    0.0000 C.3     1  UNL1        0.1036
     21 C           8.0622    0.0950    0.0000 C.ar    1  UNL1        0.2063
     22 C           8.9282    0.5950    0.0000 C.ar    1  UNL1        0.1631
     23 C           7.1962    0.5950    0.0000 C.ar    1  UNL1        0.1631
     24 C           8.9282    1.5950    0.0000 C.ar    1  UNL1       -0.0023
     25 C           7.1962    1.5950    0.0000 C.ar    1  UNL1       -0.0023
     26 C           8.0622    2.0950    0.0000 C.ar    1  UNL1        0.0660
     27 C           8.0622    3.0950    0.0000 C.2     1  UNL1        0.3370
     28 H           5.4641   -3.0250    0.0000 H       1  UNL1        0.0647
     29 H           6.8671   -3.2150    0.0000 H       1  UNL1        0.0648
     30 H           5.4641   -0.7850    0.0000 H       1  UNL1        0.0648
     31 H           7.7331   -2.0950    0.0000 H       1  UNL1        0.0683
     32 H           7.1962   -0.7850    0.0000 H       1  UNL1        0.1084
     33 H           4.9966   -0.4301    0.0000 H       1  UNL1        0.0610
     34 H           4.1996   -0.4301    0.0000 H       1  UNL1        0.0610
     35 H           4.5981   -3.5250    0.0000 H       1  UNL1        0.2100
     36 H           5.7932   -4.2150    0.0000 H       1  UNL1        0.2100
     37 H           8.0622   -3.5250    0.0000 H       1  UNL1        0.2102
     38 H           9.4651    1.9050    0.0000 H       1  UNL1        0.0663
     39 H           6.6592    1.9050    0.0000 H       1  UNL1        0.0663
     40 H          10.3312    0.4050    0.0000 H       1  UNL1        0.2923
     41 H           5.7932    0.4050    0.0000 H       1  UNL1        0.2923
     42 H           8.9282    4.2150    0.0000 H       1  UNL1        0.2954
@<TRIPOS>UNITY_ATOM_ATTR
10 1
charge -1
@<TRIPOS>BOND
     1     1     7    1
     2     1    10    1
     3     1    11    2
     4     1    12    2
     5     2    17    1
     6     2    19    1
     7    15     3    1
     8     3    35    1
     9    19     4    1
    10     4    21    1
    11    16     5    1
    12     5    36    1
    13    18     6    1
    14     6    37    1
    15     7    20    1
    16     8    22    1
    17     8    40    1
    18     9    23    1
    19     9    41    1
    20    13    27    1
    21    13    42    1
    22    14    27    2
    23    15    16    1
    24    15    17    1
    25    15    28    1
    26    16    18    1
    27    16    29    1
    28    17    20    1
    29    17    30    1
    30    18    19    1
    31    18    31    1
    32    19    32    1
    33    20    33    1
    34    20    34    1
    35    21    22   ar
    36    21    23   ar
    37    22    24   ar
    38    23    25   ar
    39    24    26   ar
    40    24    38    1
    41    25    26   ar
    42    25    39    1
    43    26    27    1
