@<TRIPOS>MOLECULE
IMPHY011654
 81 84 0 0 0
SMALL
GASTEIGER

@<TRIPOS>ATOM
      1 O           2.5357   -3.1598    0.0000 O.3     1  UNL1       -0.3915
      2 C           7.9288   -0.1074    0.0000 C.3     1  UNL1       -0.0225
      3 C           7.9288   -1.1074    0.0000 C.3     1  UNL1       -0.0140
      4 C           6.1968   -1.1074    0.0000 C.3     1  UNL1       -0.0139
      5 C           5.2868   -1.6143    0.0000 C.3     1  UNL1       -0.0220
      6 C           8.8750    0.1973    0.0000 C.3     1  UNL1       -0.0325
      7 C           7.0628   -1.6074    0.0000 C.2     1  UNL1       -0.0662
      8 C           5.2787   -2.6559    0.0000 C.3     1  UNL1       -0.0267
      9 C           7.0628    0.3926    0.0000 C.3     1  UNL1       -0.0463
     10 C           6.1968   -0.1074    0.0000 C.3     1  UNL1       -0.0455
     11 C           8.8750   -1.4122    0.0000 C.3     1  UNL1       -0.0457
     12 C           9.4586   -0.6074    0.0000 C.3     1  UNL1       -0.0489
     13 C           4.3599   -1.0502    0.0000 C.3     1  UNL1       -0.0445
     14 C           4.3433   -3.2056    0.0000 C.3     1  UNL1       -0.0142
     15 C           6.1808   -3.1767    0.0000 C.3     1  UNL1       -0.0308
     16 C           9.1857    1.1478    0.0000 C.3     1  UNL1       -0.0402
     17 C           7.9288    0.8926    0.0000 C.3     1  UNL1       -0.0588
     18 C           7.0789   -2.6489    0.0000 C.2     1  UNL1       -0.0839
     19 C           5.2945   -0.6143    0.0000 C.3     1  UNL1       -0.0587
     20 C           3.4120   -1.5782    0.0000 C.3     1  UNL1       -0.0261
     21 C           3.4037   -2.6631    0.0000 C.3     1  UNL1        0.0581
     22 C          10.1642    1.3540    0.0000 C.3     1  UNL1       -0.0465
     23 C           4.3472   -4.2056    0.0000 C.3     1  UNL1       -0.0598
     24 C           8.5179    1.8921    0.0000 C.3     1  UNL1       -0.0621
     25 C          10.4749    2.3046    0.0000 C.3     1  UNL1       -0.0313
     26 C          11.4534    2.5108    0.0000 C.2     1  UNL1       -0.0711
     27 C          11.7640    3.4613    0.0000 C.3     1  UNL1       -0.0256
     28 C          12.1212    1.7665    0.0000 C.2     1  UNL1       -0.0876
     29 C          12.7425    3.6675    0.0000 C.3     1  UNL1       -0.0590
     30 C          11.0962    4.2056    0.0000 C.3     1  UNL1       -0.0590
     31 C          13.0997    1.9727    0.0000 C.3     1  UNL1       -0.0466
     32 H           8.0188   -1.9527    0.0000 H       1  UNL1        0.0351
     33 H           6.9329   -0.6824    0.0000 H       1  UNL1        0.0351
     34 H           9.7148    0.3292    0.0000 H       1  UNL1        0.0309
     35 H           5.2820   -3.5059    0.0000 H       1  UNL1        0.0313
     36 H           7.4613    0.8675    0.0000 H       1  UNL1        0.0271
     37 H           6.6643    0.8675    0.0000 H       1  UNL1        0.0271
     38 H           5.9847    0.4752    0.0000 H       1  UNL1        0.0271
     39 H           5.5862   -0.2151    0.0000 H       1  UNL1        0.0271
     40 H           8.6240   -1.9791    0.0000 H       1  UNL1        0.0271
     41 H           9.4124   -1.7214    0.0000 H       1  UNL1        0.0271
     42 H           9.9195   -1.0222    0.0000 H       1  UNL1        0.0268
     43 H           9.9195   -0.1927    0.0000 H       1  UNL1        0.0268
     44 H           4.7681   -0.5835    0.0000 H       1  UNL1        0.0272
     45 H           3.9700   -0.5682    0.0000 H       1  UNL1        0.0272
     46 H           3.8070   -3.5166    0.0000 H       1  UNL1        0.0326
     47 H           5.7835   -3.6527    0.0000 H       1  UNL1        0.0310
     48 H           6.5818   -3.6496    0.0000 H       1  UNL1        0.0310
     49 H           9.3783    1.7371    0.0000 H       1  UNL1        0.0301
     50 H           8.5488    0.8926    0.0000 H       1  UNL1        0.0235
     51 H           7.9288    1.5126    0.0000 H       1  UNL1        0.0235
     52 H           7.3088    0.8926    0.0000 H       1  UNL1        0.0235
     53 H           7.6193   -2.9527    0.0000 H       1  UNL1        0.0572
     54 H           5.9145   -0.6191    0.0000 H       1  UNL1        0.0235
     55 H           5.2993    0.0057    0.0000 H       1  UNL1        0.0235
     56 H           4.6745   -0.6095    0.0000 H       1  UNL1        0.0235
     57 H           3.2075   -0.9929    0.0000 H       1  UNL1        0.0290
     58 H           2.8004   -1.6795    0.0000 H       1  UNL1        0.0290
     59 H           3.4025   -3.2831    0.0000 H       1  UNL1        0.0596
     60 H          10.1848    0.7344    0.0000 H       1  UNL1        0.0271
     61 H          10.7780    1.2667    0.0000 H       1  UNL1        0.0271
     62 H           3.7272   -4.2080    0.0000 H       1  UNL1        0.0233
     63 H           4.3496   -4.8256    0.0000 H       1  UNL1        0.0233
     64 H           4.9672   -4.2032    0.0000 H       1  UNL1        0.0233
     65 H           8.9793    2.3062    0.0000 H       1  UNL1        0.0233
     66 H           8.1038    2.3536    0.0000 H       1  UNL1        0.0233
     67 H           8.0564    1.4781    0.0000 H       1  UNL1        0.0233
     68 H           2.0000   -2.8477    0.0000 H       1  UNL1        0.2098
     69 H          10.4543    2.9242    0.0000 H       1  UNL1        0.0310
     70 H           9.8611    2.3919    0.0000 H       1  UNL1        0.0310
     71 H          12.1781    2.9998    0.0000 H       1  UNL1        0.0340
     72 H          11.9286    1.1772    0.0000 H       1  UNL1        0.0569
     73 H          12.8704    3.0608    0.0000 H       1  UNL1        0.0235
     74 H          11.5577    4.6197    0.0000 H       1  UNL1        0.0235
     75 H          10.6821    4.6671    0.0000 H       1  UNL1        0.0235
     76 H          10.6347    3.7915    0.0000 H       1  UNL1        0.0235
     77 H          13.3492    3.7954    0.0000 H       1  UNL1        0.0235
     78 H          12.6147    4.2742    0.0000 H       1  UNL1        0.0235
     79 H          13.2276    1.3660    0.0000 H       1  UNL1        0.0272
     80 H          13.7064    2.1006    0.0000 H       1  UNL1        0.0272
     81 H          12.9719    2.5794    0.0000 H       1  UNL1        0.0272
@<TRIPOS>BOND
     1    21     1    1
     2     1    68    1
     3     2     3    1
     4     2     6    1
     5     2     9    1
     6     2    17    1
     7     3     7    1
     8     3    11    1
     9     3    32    1
    10     4     5    1
    11     4     7    1
    12     4    10    1
    13     4    33    1
    14     5     8    1
    15     5    13    1
    16     5    19    1
    17     6    12    1
    18     6    16    1
    19     6    34    1
    20     7    18    2
    21     8    14    1
    22     8    15    1
    23     8    35    1
    24     9    10    1
    25     9    36    1
    26     9    37    1
    27    10    38    1
    28    10    39    1
    29    11    12    1
    30    11    40    1
    31    11    41    1
    32    12    42    1
    33    12    43    1
    34    13    20    1
    35    13    44    1
    36    13    45    1
    37    14    21    1
    38    14    23    1
    39    14    46    1
    40    15    18    1
    41    15    47    1
    42    15    48    1
    43    16    22    1
    44    16    24    1
    45    16    49    1
    46    17    50    1
    47    17    51    1
    48    17    52    1
    49    18    53    1
    50    19    54    1
    51    19    55    1
    52    19    56    1
    53    20    21    1
    54    20    57    1
    55    20    58    1
    56    21    59    1
    57    22    25    1
    58    22    60    1
    59    22    61    1
    60    23    62    1
    61    23    63    1
    62    23    64    1
    63    24    65    1
    64    24    66    1
    65    24    67    1
    66    25    26    1
    67    25    69    1
    68    25    70    1
    69    26    27    1
    70    26    28    2
    71    27    29    1
    72    27    30    1
    73    27    71    1
    74    28    31    1
    75    28    72    1
    76    29    73    1
    77    29    77    1
    78    29    78    1
    79    30    74    1
    80    30    75    1
    81    30    76    1
    82    31    79    1
    83    31    80    1
    84    31    81    1
