@<TRIPOS>MOLECULE
IMPHY014067
 23 23 0 0 0
SMALL
GASTEIGER

@<TRIPOS>ATOM
      1 O           2.8660   -3.3450    0.0000 O.3     1  UNL1       -0.5068
      2 O           4.5981    2.6550    0.0000 O.3     1  UNL1       -0.4649
      3 O           2.8660    2.6550    0.0000 O.2     1  UNL1       -0.2456
      4 C           2.8660   -0.3450    0.0000 C.ar    1  UNL1       -0.0246
      5 C           3.7320   -0.8450    0.0000 C.ar    1  UNL1       -0.0511
      6 C           2.0000   -0.8450    0.0000 C.ar    1  UNL1       -0.0511
      7 C           3.7320   -1.8450    0.0000 C.ar    1  UNL1       -0.0196
      8 C           2.0000   -1.8450    0.0000 C.ar    1  UNL1       -0.0196
      9 C           2.8660    0.6550    0.0000 C.2     1  UNL1       -0.0478
     10 C           2.8660   -2.3450    0.0000 C.ar    1  UNL1        0.1169
     11 C           3.7320    1.1550    0.0000 C.2     1  UNL1        0.0230
     12 C           3.7320    2.1550    0.0000 C.2     1  UNL1        0.3317
     13 C           4.5981    3.6550    0.0000 C.3     1  UNL1        0.0820
     14 H           4.2690   -0.5350    0.0000 H       1  UNL1        0.0625
     15 H           1.4631   -0.5350    0.0000 H       1  UNL1        0.0625
     16 H           2.3291    0.9650    0.0000 H       1  UNL1        0.0626
     17 H           4.2690   -2.1550    0.0000 H       1  UNL1        0.0654
     18 H           1.4631   -2.1550    0.0000 H       1  UNL1        0.0654
     19 H           4.2690    0.8450    0.0000 H       1  UNL1        0.0689
     20 H           2.3291   -3.6550    0.0000 H       1  UNL1        0.2921
     21 H           5.2181    3.6550    0.0000 H       1  UNL1        0.0661
     22 H           4.5981    4.2750    0.0000 H       1  UNL1        0.0661
     23 H           3.9781    3.6550    0.0000 H       1  UNL1        0.0661
@<TRIPOS>BOND
     1     1    10    1
     2     1    20    1
     3     2    12    1
     4     2    13    1
     5     3    12    2
     6     4     5   ar
     7     4     6   ar
     8     4     9    1
     9     5     7   ar
    10     5    14    1
    11     6     8   ar
    12     6    15    1
    13     7    10   ar
    14     7    17    1
    15     8    10   ar
    16     8    18    1
    17     9    11    2
    18     9    16    1
    19    11    12    1
    20    11    19    1
    21    13    21    1
    22    13    22    1
    23    13    23    1
