@<TRIPOS>MOLECULE
IMPHY010605
 32 34 0 0 0
SMALL
GASTEIGER

@<TRIPOS>ATOM
      1 O           3.9061   -2.1249    0.0000 O.3     1  UNL1       -0.4833
      2 O           2.1359   -0.0661    0.0000 O.3     1  UNL1       -0.3875
      3 O           5.6500    0.9513    0.0000 O.2     1  UNL1       -0.4218
      4 O           6.5442    2.4790    0.0000 O.2     1  UNL1       -0.2452
      5 C           3.0000   -1.6111    0.0000 C.3     1  UNL1        0.1310
      6 C           3.0000   -0.5694    0.0000 C.3     1  UNL1        0.0984
      7 C           3.9061   -0.0556    0.0000 C.3     1  UNL1        0.0092
      8 C           4.8000   -0.5902    0.0000 C.ar    1  UNL1        0.0397
      9 C           4.8000   -1.5902    0.0000 C.ar    1  UNL1        0.1282
     10 C           2.0000   -1.6149    0.0000 C.3     1  UNL1       -0.0227
     11 C           2.5033   -2.4790    0.0000 C.3     1  UNL1       -0.0227
     12 C           5.6660   -0.0902    0.0000 C.ar    1  UNL1        0.1458
     13 C           5.6660   -2.0902    0.0000 C.ar    1  UNL1       -0.0188
     14 C           6.5320   -0.5902    0.0000 C.ar    1  UNL1        0.0181
     15 C           6.5320   -1.5902    0.0000 C.ar    1  UNL1       -0.0476
     16 C           7.4420   -0.0834    0.0000 C.ar    1  UNL1       -0.0443
     17 C           6.5480    1.4790    0.0000 C.ar    1  UNL1        0.3372
     18 C           7.4501    0.9582    0.0000 C.ar    1  UNL1        0.0236
     19 H           3.0049    0.2806    0.0000 H       1  UNL1        0.0636
     20 H           4.3107    0.4142    0.0000 H       1  UNL1        0.0342
     21 H           3.5124    0.4234    0.0000 H       1  UNL1        0.0342
     22 H           1.9976   -0.9949    0.0000 H       1  UNL1        0.0269
     23 H           1.3800   -1.6173    0.0000 H       1  UNL1        0.0269
     24 H           2.0024   -2.2349    0.0000 H       1  UNL1        0.0269
     25 H           1.9652   -2.1711    0.0000 H       1  UNL1        0.0269
     26 H           2.1954   -3.0171    0.0000 H       1  UNL1        0.0269
     27 H           3.0415   -2.7869    0.0000 H       1  UNL1        0.0269
     28 H           5.6660   -2.7102    0.0000 H       1  UNL1        0.0654
     29 H           2.1383    0.5539    0.0000 H       1  UNL1        0.2100
     30 H           7.0690   -1.9002    0.0000 H       1  UNL1        0.0626
     31 H           7.9754   -0.3996    0.0000 H       1  UNL1        0.0627
     32 H           7.9882    1.2661    0.0000 H       1  UNL1        0.0689
@<TRIPOS>BOND
     1     1     5    1
     2     1     9    1
     3     2     6    1
     4     2    29    1
     5     3    12   ar
     6     3    17   ar
     7     4    17    2
     8     5     6    1
     9     5    10    1
    10     5    11    1
    11     6     7    1
    12     6    19    1
    13     7     8    1
    14     7    20    1
    15     7    21    1
    16     8     9   ar
    17     8    12   ar
    18     9    13   ar
    19    10    22    1
    20    10    23    1
    21    10    24    1
    22    11    25    1
    23    11    26    1
    24    11    27    1
    25    12    14   ar
    26    13    15   ar
    27    13    28    1
    28    14    15   ar
    29    14    16   ar
    30    15    30    1
    31    16    18   ar
    32    16    31    1
    33    17    18   ar
    34    18    32    1
