@<TRIPOS>MOLECULE
IMPHY007082
 21 20 0 0 0
SMALL
GASTEIGER

@<TRIPOS>ATOM
      1 S           3.7320    0.3100    0.0000 S.3     1  UNL1       -0.0876
      2 S           4.5981   -1.1900    0.0000 S.3     1  UNL1       -0.1774
      3 O           7.1962    0.3100    0.0000 O.3     1  UNL1       -0.4804
      4 O           6.3301    1.8100    0.0000 O.2     1  UNL1       -0.2506
      5 O           2.8660    1.8100    0.0000 O.2     1  UNL1       -0.2855
      6 C           5.4641    0.3100    0.0000 C.3     1  UNL1        0.0743
      7 C           4.5981    0.8100    0.0000 C.3     1  UNL1        0.0146
      8 C           5.4641   -0.6900    0.0000 C.3     1  UNL1        0.0044
      9 C           6.3301    0.8100    0.0000 C.2     1  UNL1        0.3094
     10 C           2.8660    0.8100    0.0000 C.2     1  UNL1        0.1863
     11 C           2.0000    0.3100    0.0000 C.3     1  UNL1        0.0044
     12 H           5.4641    0.9300    0.0000 H       1  UNL1        0.0430
     13 H           4.9966    1.2850    0.0000 H       1  UNL1        0.0389
     14 H           4.1996    1.2850    0.0000 H       1  UNL1        0.0389
     15 H           5.6762   -1.2726    0.0000 H       1  UNL1        0.0382
     16 H           6.0747   -0.5823    0.0000 H       1  UNL1        0.0382
     17 H           4.5981   -1.8100    0.0000 H       1  UNL1        0.1017
     18 H           7.7331    0.6200    0.0000 H       1  UNL1        0.2951
     19 H           1.6900    0.8469    0.0000 H       1  UNL1        0.0315
     20 H           1.4631    0.0000    0.0000 H       1  UNL1        0.0315
     21 H           2.3100   -0.2269    0.0000 H       1  UNL1        0.0315
@<TRIPOS>BOND
     1     1     7    1
     2     1    10    1
     3     2     8    1
     4     2    17    1
     5     3     9    1
     6     3    18    1
     7     4     9    2
     8     5    10    2
     9     6     7    1
    10     6     8    1
    11     6     9    1
    12     6    12    1
    13     7    13    1
    14     7    14    1
    15     8    15    1
    16     8    16    1
    17    10    11    1
    18    11    19    1
    19    11    20    1
    20    11    21    1
