@<TRIPOS>MOLECULE
IMPHY010047
 91 96 0 0 0
SMALL
GASTEIGER

@<TRIPOS>ATOM
      1 O           8.6565   -2.1383    0.0000 O.3     1  UNL1       -0.3366
      2 O           6.9245   -0.1383    0.0000 O.3     1  UNL1       -0.3313
      3 O           7.7905   -3.6383    0.0000 O.3     1  UNL1       -0.3461
      4 O           8.6565   -0.1383    0.0000 O.3     1  UNL1       -0.4514
      5 O           6.9245   -3.1383    0.0000 O.3     1  UNL1       -0.3863
      6 O           5.1924   -2.1383    0.0000 O.3     1  UNL1       -0.3865
      7 O           5.1370    3.8485    0.0000 O.3     1  UNL1       -0.3313
      8 O          10.3886   -3.1383    0.0000 O.3     1  UNL1       -0.3841
      9 O          10.3886   -5.1383    0.0000 O.3     1  UNL1       -0.3864
     10 O           6.0203    2.3586    0.0000 O.3     1  UNL1       -0.4598
     11 O           8.6565   -6.1383    0.0000 O.3     1  UNL1       -0.3869
     12 O           4.3264   -0.6383    0.0000 O.3     1  UNL1       -0.3924
     13 O           2.5564    2.3185    0.0000 O.3     1  UNL1       -0.3864
     14 O           2.5333    4.3184    0.0000 O.3     1  UNL1       -0.3865
     15 O           4.2999    1.3386    0.0000 O.3     1  UNL1       -0.3829
     16 O           9.5226    2.3617    0.0000 O.2     1  UNL1       -0.1997
     17 O           3.3819    5.8283    0.0000 O.3     1  UNL1       -0.3924
     18 O           7.7784    5.4310    0.0000 O.3     1  UNL1       -0.5063
     19 O          12.9867    1.3617    0.0000 O.3     1  UNL1       -0.5033
     20 O          12.9867   -0.6383    0.0000 O.3     1  UNL1       -0.5033
     21 C           7.7905   -1.6383    0.0000 C.3     1  UNL1        0.1519
     22 C           6.9245   -2.1383    0.0000 C.3     1  UNL1        0.1155
     23 C           6.0584   -1.6383    0.0000 C.3     1  UNL1        0.1120
     24 C           7.7905   -0.6383    0.0000 C.3     1  UNL1        0.2316
     25 C           6.0584   -0.6383    0.0000 C.3     1  UNL1        0.1140
     26 C           8.6565   -3.1383    0.0000 C.3     1  UNL1        0.1882
     27 C           9.5226   -3.6383    0.0000 C.3     1  UNL1        0.1341
     28 C           9.5226   -4.6383    0.0000 C.3     1  UNL1        0.1137
     29 C           8.6565   -5.1383    0.0000 C.3     1  UNL1        0.1069
     30 C           5.1924   -0.1383    0.0000 C.3     1  UNL1        0.0731
     31 C           7.7905   -4.6383    0.0000 C.3     1  UNL1        0.0792
     32 C           3.4166    2.8285    0.0000 C.3     1  UNL1        0.1152
     33 C           3.4051    3.8284    0.0000 C.3     1  UNL1        0.1120
     34 C           4.2884    2.3386    0.0000 C.3     1  UNL1        0.1454
     35 C           4.2652    4.3384    0.0000 C.3     1  UNL1        0.1140
     36 C           5.1486    2.8485    0.0000 C.3     1  UNL1        0.2308
     37 C           8.6565    0.8617    0.0000 C.ar    1  UNL1        0.2288
     38 C           4.2537    5.3384    0.0000 C.3     1  UNL1        0.0731
     39 C           7.7905    2.3617    0.0000 C.ar    1  UNL1        0.1245
     40 C           7.7905    1.3617    0.0000 C.ar    1  UNL1        0.0093
     41 C           6.8805    2.8686    0.0000 C.ar    1  UNL1        0.1437
     42 C           9.5226    1.3617    0.0000 C.ar    1  UNL1        0.4046
     43 C           8.6565    2.8617    0.0000 C.ar    1  UNL1        0.3708
     44 C           6.8725    3.9102    0.0000 C.ar    1  UNL1        0.0229
     45 C          10.3886    0.8617    0.0000 C.ar    1  UNL1        0.0865
     46 C           8.6726    3.9032    0.0000 C.ar    1  UNL1        0.0847
     47 C           7.7746    4.4310    0.0000 C.ar    1  UNL1        0.1293
     48 C          11.2546    1.3617    0.0000 C.ar    1  UNL1       -0.0003
     49 C          10.3886   -0.1383    0.0000 C.ar    1  UNL1       -0.0418
     50 C          12.1206    0.8617    0.0000 C.ar    1  UNL1        0.1591
     51 C          11.2546   -0.6383    0.0000 C.ar    1  UNL1       -0.0157
     52 C          12.1206   -0.1383    0.0000 C.ar    1  UNL1        0.1583
     53 H           7.7905   -2.2583    0.0000 H       1  UNL1        0.0687
     54 H           6.3875   -2.4483    0.0000 H       1  UNL1        0.0648
     55 H           5.5215   -1.3283    0.0000 H       1  UNL1        0.0647
     56 H           7.7905   -0.0183    0.0000 H       1  UNL1        0.1084
     57 H           6.0584   -0.0183    0.0000 H       1  UNL1        0.0647
     58 H           9.1935   -2.8283    0.0000 H       1  UNL1        0.0937
     59 H          10.0595   -3.9483    0.0000 H       1  UNL1        0.0671
     60 H           9.5226   -5.2583    0.0000 H       1  UNL1        0.0647
     61 H           8.1196   -5.4483    0.0000 H       1  UNL1        0.0643
     62 H           5.5910    0.3367    0.0000 H       1  UNL1        0.0584
     63 H           4.7939    0.3367    0.0000 H       1  UNL1        0.0584
     64 H           2.8761    3.1323    0.0000 H       1  UNL1        0.0648
     65 H           7.1799   -4.5306    0.0000 H       1  UNL1        0.0587
     66 H           7.5784   -5.2209    0.0000 H       1  UNL1        0.0587
     67 H           3.3979    4.4484    0.0000 H       1  UNL1        0.0647
     68 H           3.7551    2.0224    0.0000 H       1  UNL1        0.0683
     69 H           4.7986    4.6546    0.0000 H       1  UNL1        0.0647
     70 H           5.1557    2.2286    0.0000 H       1  UNL1        0.1084
     71 H           6.3875   -3.4483    0.0000 H       1  UNL1        0.2100
     72 H           5.1924   -2.7583    0.0000 H       1  UNL1        0.2100
     73 H           4.8655    5.2378    0.0000 H       1  UNL1        0.0584
     74 H           4.4590    5.9234    0.0000 H       1  UNL1        0.0584
     75 H          10.9255   -3.4483    0.0000 H       1  UNL1        0.2101
     76 H          10.3886   -5.7583    0.0000 H       1  UNL1        0.2100
     77 H           8.1196   -6.4483    0.0000 H       1  UNL1        0.2100
     78 H           7.2536    1.0517    0.0000 H       1  UNL1        0.0667
     79 H           3.7895   -0.3283    0.0000 H       1  UNL1        0.2095
     80 H           2.0160    2.6223    0.0000 H       1  UNL1        0.2100
     81 H           2.0000    4.0022    0.0000 H       1  UNL1        0.2100
     82 H           3.7666    1.0224    0.0000 H       1  UNL1        0.2102
     83 H           6.3343    4.2181    0.0000 H       1  UNL1        0.0691
     84 H           3.3748    6.4483    0.0000 H       1  UNL1        0.2095
     85 H           9.2131    4.2070    0.0000 H       1  UNL1        0.0749
     86 H          11.2546    1.9817    0.0000 H       1  UNL1        0.0664
     87 H           9.8516   -0.4483    0.0000 H       1  UNL1        0.0628
     88 H          11.2546   -1.2583    0.0000 H       1  UNL1        0.0655
     89 H           8.3165    5.7389    0.0000 H       1  UNL1        0.2921
     90 H          12.9867    1.9817    0.0000 H       1  UNL1        0.2923
     91 H          12.9867   -1.2583    0.0000 H       1  UNL1        0.2923
@<TRIPOS>UNITY_ATOM_ATTR
16 1
charge 1
@<TRIPOS>BOND
     1     1    21    1
     2     1    26    1
     3     2    24    1
     4     2    25    1
     5     3    26    1
     6     3    31    1
     7     4    24    1
     8     4    37    1
     9     5    22    1
    10     5    71    1
    11     6    23    1
    12     6    72    1
    13     7    35    1
    14     7    36    1
    15     8    27    1
    16     8    75    1
    17     9    28    1
    18     9    76    1
    19    10    36    1
    20    10    41    1
    21    11    29    1
    22    11    77    1
    23    12    30    1
    24    12    79    1
    25    13    32    1
    26    13    80    1
    27    14    33    1
    28    14    81    1
    29    15    34    1
    30    15    82    1
    31    16    42   ar
    32    16    43   ar
    33    17    38    1
    34    17    84    1
    35    18    47    1
    36    18    89    1
    37    19    50    1
    38    19    90    1
    39    20    52    1
    40    20    91    1
    41    21    22    1
    42    21    24    1
    43    21    53    1
    44    22    23    1
    45    22    54    1
    46    23    25    1
    47    23    55    1
    48    24    56    1
    49    25    30    1
    50    25    57    1
    51    26    27    1
    52    26    58    1
    53    27    28    1
    54    27    59    1
    55    28    29    1
    56    28    60    1
    57    29    31    1
    58    29    61    1
    59    30    62    1
    60    30    63    1
    61    31    65    1
    62    31    66    1
    63    32    33    1
    64    32    34    1
    65    32    64    1
    66    33    35    1
    67    33    67    1
    68    34    36    1
    69    34    68    1
    70    35    38    1
    71    35    69    1
    72    36    70    1
    73    37    40   ar
    74    37    42   ar
    75    38    73    1
    76    38    74    1
    77    39    40   ar
    78    39    41   ar
    79    39    43   ar
    80    40    78    1
    81    41    44   ar
    82    42    45    1
    83    43    46   ar
    84    44    47   ar
    85    44    83    1
    86    45    48   ar
    87    45    49   ar
    88    46    47   ar
    89    46    85    1
    90    48    50   ar
    91    48    86    1
    92    49    51   ar
    93    49    87    1
    94    50    52   ar
    95    51    52   ar
    96    51    88    1
