@<TRIPOS>MOLECULE
IMPHY007150
 19 20 0 0 0
SMALL
GASTEIGER

@<TRIPOS>ATOM
      1 O           4.6660   -1.0000    0.0000 O.3     1  UNL1       -0.4255
      2 O           6.3981   -1.0000    0.0000 O.2     1  UNL1       -0.2504
      3 C           4.6660    1.0000    0.0000 C.3     1  UNL1       -0.0141
      4 C           3.8000    0.5000    0.0000 C.ar    1  UNL1       -0.0045
      5 C           5.5321    0.5000    0.0000 C.3     1  UNL1        0.0494
      6 C           3.8000   -0.5000    0.0000 C.ar    1  UNL1        0.1348
      7 C           5.5321   -0.5000    0.0000 C.2     1  UNL1        0.3126
      8 C           2.9061    1.0347    0.0000 C.ar    1  UNL1       -0.0551
      9 C           2.9061   -1.0347    0.0000 C.ar    1  UNL1       -0.0190
     10 C           2.0000    0.5208    0.0000 C.ar    1  UNL1       -0.0613
     11 C           2.0000   -0.5208    0.0000 C.ar    1  UNL1       -0.0583
     12 H           5.0646    1.4750    0.0000 H       1  UNL1        0.0319
     13 H           4.2675    1.4750    0.0000 H       1  UNL1        0.0319
     14 H           6.1426    0.3923    0.0000 H       1  UNL1        0.0381
     15 H           5.7441    1.0826    0.0000 H       1  UNL1        0.0381
     16 H           2.9132    1.6546    0.0000 H       1  UNL1        0.0621
     17 H           2.9132   -1.6546    0.0000 H       1  UNL1        0.0654
     18 H           1.4643    0.8329    0.0000 H       1  UNL1        0.0618
     19 H           1.4643   -0.8329    0.0000 H       1  UNL1        0.0619
@<TRIPOS>BOND
     1     1     6    1
     2     1     7    1
     3     2     7    2
     4     3     4    1
     5     3     5    1
     6     3    12    1
     7     3    13    1
     8     4     6   ar
     9     4     8   ar
    10     5     7    1
    11     5    14    1
    12     5    15    1
    13     6     9   ar
    14     8    10   ar
    15     8    16    1
    16     9    11   ar
    17     9    17    1
    18    10    11   ar
    19    10    18    1
    20    11    19    1
