@<TRIPOS>MOLECULE
IMPHY007340
 20 19 0 0 0
SMALL
GASTEIGER

@<TRIPOS>ATOM
      1 S           8.0622    0.0000    0.0000 S.3     1  UNL1       -0.1641
      2 S           3.7320   -0.5000    0.0000 S.3     1  UNL1       -0.0465
      3 N           2.0000    0.5000    0.0000 N.1     1  UNL1       -0.1838
      4 C           6.3301    0.0000    0.0000 C.3     1  UNL1       -0.0432
      5 C           5.4641   -0.5000    0.0000 C.3     1  UNL1       -0.0423
      6 C           7.1962   -0.5000    0.0000 C.3     1  UNL1       -0.0066
      7 C           4.5981    0.0000    0.0000 C.3     1  UNL1        0.0077
      8 C           8.9282   -0.5000    0.0000 C.3     1  UNL1       -0.0181
      9 C           2.8660    0.0000    0.0000 C.1     1  UNL1        0.1329
     10 H           6.7287    0.4749    0.0000 H       1  UNL1        0.0273
     11 H           5.9316    0.4749    0.0000 H       1  UNL1        0.0273
     12 H           5.0656   -0.9749    0.0000 H       1  UNL1        0.0274
     13 H           5.8626   -0.9749    0.0000 H       1  UNL1        0.0274
     14 H           6.7976   -0.9749    0.0000 H       1  UNL1        0.0376
     15 H           7.5947   -0.9749    0.0000 H       1  UNL1        0.0376
     16 H           4.9966    0.4749    0.0000 H       1  UNL1        0.0386
     17 H           4.1996    0.4749    0.0000 H       1  UNL1        0.0386
     18 H           8.6182   -1.0369    0.0000 H       1  UNL1        0.0340
     19 H           9.4651   -0.8100    0.0000 H       1  UNL1        0.0340
     20 H           9.2382    0.0369    0.0000 H       1  UNL1        0.0340
@<TRIPOS>BOND
     1     1     6    1
     2     1     8    1
     3     2     7    1
     4     2     9    1
     5     3     9    3
     6     4     5    1
     7     4     6    1
     8     4    10    1
     9     4    11    1
    10     5     7    1
    11     5    12    1
    12     5    13    1
    13     6    14    1
    14     6    15    1
    15     7    16    1
    16     7    17    1
    17     8    18    1
    18     8    19    1
    19     8    20    1
