@<TRIPOS>MOLECULE
IMPHY006295
 27 29 0 0 0
SMALL
GASTEIGER

@<TRIPOS>ATOM
      1 O           7.6255    1.0936    0.0000 O.3     1  UNL1       -0.4634
      2 O           5.9721    1.6098    0.0000 O.2     1  UNL1       -0.2432
      3 N           4.5274    0.2754    0.0000 N.ar    1  UNL1       -0.3523
      4 N           7.0547   -0.8488    0.0000 N.ar    1  UNL1       -0.2465
      5 C           5.0274   -1.2635    0.0000 C.ar    1  UNL1        0.0111
      6 C           4.0274   -1.2635    0.0000 C.ar    1  UNL1        0.0075
      7 C           5.3364   -0.3124    0.0000 C.ar    1  UNL1        0.0803
      8 C           3.7183   -0.3124    0.0000 C.ar    1  UNL1        0.0475
      9 C           6.3518   -0.0801    0.0000 C.ar    1  UNL1        0.1714
     10 C           3.3424   -2.0482    0.0000 C.ar    1  UNL1       -0.0520
     11 C           5.7123   -2.0482    0.0000 C.ar    1  UNL1       -0.0338
     12 C           2.7029   -0.0801    0.0000 C.ar    1  UNL1       -0.0378
     13 C           2.3219   -1.8395    0.0000 C.ar    1  UNL1       -0.0611
     14 C           2.0000   -0.8488    0.0000 C.ar    1  UNL1       -0.0598
     15 C           6.7328   -1.8395    0.0000 C.ar    1  UNL1        0.0292
     16 C           6.6498    0.8744    0.0000 C.2     1  UNL1        0.3595
     17 C           7.9235    2.0482    0.0000 C.3     1  UNL1        0.0820
     18 H           4.5274    0.8954    0.0000 H       1  UNL1        0.1660
     19 H           5.5139   -2.6356    0.0000 H       1  UNL1        0.0639
     20 H           3.5408   -2.6356    0.0000 H       1  UNL1        0.0624
     21 H           2.5182    0.5117    0.0000 H       1  UNL1        0.0638
     22 H           1.9088   -2.3018    0.0000 H       1  UNL1        0.0618
     23 H           1.3940   -0.7176    0.0000 H       1  UNL1        0.0618
     24 H           7.1459   -2.3018    0.0000 H       1  UNL1        0.0830
     25 H           8.5153    1.8634    0.0000 H       1  UNL1        0.0661
     26 H           8.1082    2.6400    0.0000 H       1  UNL1        0.0661
     27 H           7.3316    2.2330    0.0000 H       1  UNL1        0.0661
@<TRIPOS>BOND
     1     1    16    1
     2     1    17    1
     3     2    16    2
     4     3     7   ar
     5     3     8   ar
     6     3    18    1
     7     4     9   ar
     8     4    15   ar
     9     5     6   ar
    10     5     7   ar
    11     5    11   ar
    12     6     8   ar
    13     6    10   ar
    14     7     9   ar
    15     8    12   ar
    16     9    16    1
    17    10    13   ar
    18    10    20    1
    19    11    15   ar
    20    11    19    1
    21    12    14   ar
    22    12    21    1
    23    13    14   ar
    24    13    22    1
    25    14    23    1
    26    15    24    1
    27    17    25    1
    28    17    26    1
    29    17    27    1
