@<TRIPOS>MOLECULE
IMPHY010761
 86 95 0 0 0
SMALL
GASTEIGER

@<TRIPOS>ATOM
      1 O           8.6037    0.6025    0.0000 O.3     1  UNL1       -0.3311
      2 O          17.6046    3.7075    0.0000 O.3     1  UNL1       -0.3284
      3 O          17.6046    5.7992    0.0000 O.3     1  UNL1       -0.2205
      4 O          10.4179   -1.1754    0.0000 O.3     1  UNL1       -0.2203
      5 O           7.7434    2.1058    0.0000 O.3     1  UNL1       -0.3170
      6 O          18.4764    5.2042    0.0000 O.3     1  UNL1       -0.3257
      7 O           6.8678   -0.3908    0.0000 O.3     1  UNL1       -0.3232
      8 O          19.3328    2.7009    0.0000 O.3     1  UNL1       -0.2150
      9 O           5.1396    0.6158    0.0000 O.3     1  UNL1       -0.2175
     10 O          21.0687    3.6942    0.0000 O.3     1  UNL1       -0.3255
     11 O           5.1473    2.6158    0.0000 O.3     1  UNL1       -0.2171
     12 O          21.0764    5.6942    0.0000 O.3     1  UNL1       -0.2177
     13 O           5.1357   -0.3842    0.0000 O.3     1  UNL1       -0.3257
     14 O           6.0191    4.1125    0.0000 O.co2   1  UNL1       -0.2429
     15 O           7.7511    4.1058    0.0000 O.co2   1  UNL1       -0.2429
     16 O           6.8600   -2.3908    0.0000 O.3     1  UNL1       -0.3231
     17 O          21.9405    5.1908    0.0000 O.3     1  UNL1       -0.3257
     18 O           5.1242   -3.3841    0.0000 O.3     1  UNL1       -0.2175
     19 O          22.7969    2.6875    0.0000 O.3     1  UNL1       -0.2149
     20 O           3.3960   -2.3775    0.0000 O.3     1  UNL1       -0.2176
     21 O          24.5328    3.6808    0.0000 O.3     1  UNL1       -0.2174
     22 O           5.9882   -3.8875    0.0000 O.3     1  UNL1       -0.3256
     23 O           2.5357   -0.8741    0.0000 O.3     1  UNL1       -0.2176
     24 O          24.5405    5.6808    0.0000 O.3     1  UNL1       -0.2176
     25 O           8.5882   -3.3975    0.0000 O.3     1  UNL1       -0.2149
     26 O           8.5805   -5.3975    0.0000 O.3     1  UNL1       -0.2174
     27 O           6.8446   -6.3908    0.0000 O.3     1  UNL1       -0.2176
     28 O           5.1126   -6.3841    0.0000 O.3     1  UNL1       -0.2176
     29 C          13.1307    2.1548    0.0000 C.3     1  UNL1        0.0035
     30 C          12.2647    2.6548    0.0000 C.3     1  UNL1        0.0046
     31 C          11.3547    2.1480    0.0000 C.3     1  UNL1        0.0006
     32 C          13.9967    2.6548    0.0000 C.3     1  UNL1        0.0149
     33 C          11.3467    1.1064    0.0000 C.3     1  UNL1        0.0047
     34 C          13.1468    1.1133    0.0000 C.3     1  UNL1        0.0003
     35 C          13.9967    3.6548    0.0000 C.2     1  UNL1       -0.0493
     36 C          14.8907    4.1895    0.0000 C.3     1  UNL1        0.0204
     37 C          12.2487    0.5856    0.0000 C.3     1  UNL1        0.0002
     38 C          10.4112    0.5566    0.0000 C.3     1  UNL1        0.0557
     39 C          15.7967    3.6756    0.0000 C.3     1  UNL1        0.0310
     40 C          14.8907    2.1202    0.0000 C.3     1  UNL1        0.0038
     41 C          12.2647    3.6548    0.0000 C.3     1  UNL1        0.0254
     42 C          10.4278    2.7121    0.0000 C.3     1  UNL1        0.0025
     43 C          15.7967    2.6340    0.0000 C.3     1  UNL1        0.0030
     44 C          13.7735    1.3888    0.0000 C.3     1  UNL1        0.0003
     45 C           9.4716    1.0991    0.0000 C.3     1  UNL1        0.1202
     46 C          13.1307    4.1548    0.0000 C.2     1  UNL1       -0.0346
     47 C          11.3624    3.1479    0.0000 C.3     1  UNL1        0.0000
     48 C           9.4800    2.1841    0.0000 C.3     1  UNL1        0.0297
     49 C          14.3389    1.7152    0.0000 C.3     1  UNL1        0.0040
     50 C          14.8656    5.2742    0.0000 C.3     1  UNL1        0.0066
     51 C          16.7405    4.2109    0.0000 C.3     1  UNL1        0.1482
     52 C          15.7967    5.8311    0.0000 C.3     1  UNL1        0.0309
     53 C          16.7405    5.2959    0.0000 C.3     1  UNL1        0.1788
     54 C           9.9146   -0.3113    0.0000 C.3     1  UNL1        0.1843
     55 C          10.9146   -0.3074    0.0000 C.3     1  UNL1        0.0050
     56 C          16.6666    3.1823    0.0000 C.3     1  UNL1        0.0028
     57 C          16.2867    6.7029    0.0000 C.3     1  UNL1        0.0026
     58 C          15.2868    6.6913    0.0000 C.3     1  UNL1        0.0026
     59 C           7.7396    1.1058    0.0000 C.3     1  UNL1        0.2666
     60 C          18.4726    4.2042    0.0000 C.3     1  UNL1        0.2693
     61 C           6.8716    0.6092    0.0000 C.3     1  UNL1        0.2066
     62 C          19.3367    3.7009    0.0000 C.3     1  UNL1        0.2374
     63 C           6.0075    1.1125    0.0000 C.3     1  UNL1        0.2172
     64 C          20.2046    4.1975    0.0000 C.3     1  UNL1        0.1858
     65 C           6.8793    2.6091    0.0000 C.3     1  UNL1        0.2529
     66 C           6.0114    2.1125    0.0000 C.3     1  UNL1        0.2228
     67 C          19.3444    5.7008    0.0000 C.3     1  UNL1        0.1802
     68 C          20.2085    5.1975    0.0000 C.3     1  UNL1        0.2111
     69 C           5.9998   -0.8875    0.0000 C.3     1  UNL1        0.2664
     70 C           6.8832    3.6091    0.0000 C.2     1  UNL1        0.3941
     71 C           5.9960   -1.8875    0.0000 C.3     1  UNL1        0.2066
     72 C          21.9366    4.1908    0.0000 C.3     1  UNL1        0.2695
     73 C           5.1280   -2.3841    0.0000 C.3     1  UNL1        0.2166
     74 C           4.2678   -0.8808    0.0000 C.3     1  UNL1        0.1835
     75 C          22.8007    3.6875    0.0000 C.3     1  UNL1        0.2406
     76 C           4.2639   -1.8808    0.0000 C.3     1  UNL1        0.2143
     77 C          23.6687    4.1842    0.0000 C.3     1  UNL1        0.2198
     78 C           3.4037   -0.3775    0.0000 C.3     1  UNL1        0.2142
     79 C          22.8084    5.6875    0.0000 C.3     1  UNL1        0.1803
     80 C          23.6725    5.1842    0.0000 C.3     1  UNL1        0.2143
     81 C           6.8562   -3.3908    0.0000 C.3     1  UNL1        0.2696
     82 C           7.7203   -3.8941    0.0000 C.3     1  UNL1        0.2406
     83 C           7.7164   -4.8941    0.0000 C.3     1  UNL1        0.2198
     84 C           5.9844   -4.8875    0.0000 C.3     1  UNL1        0.1835
     85 C           6.8485   -5.3908    0.0000 C.3     1  UNL1        0.2144
     86 C           5.1164   -5.3841    0.0000 C.3     1  UNL1        0.2142
@<TRIPOS>BOND
     1     1    45    1
     2     4    54    1
     3     5    59    1
     4     5    65    1
     5     6    60    1
     6     6    67    1
     7    13    69    1
     8    13    74    1
     9    14    70   ar
    10    15    70   ar
    11    17    72    1
    12    17    79    1
    13    22    81    1
    14    22    84    1
    15    23    78    1
    16    28    86    1
    17    29    30    1
    18    29    32    1
    19    29    34    1
    20    29    44    1
    21    30    31    1
    22    30    41    1
    23    31    33    1
    24    31    42    1
    25    31    47    1
    26    32    35    1
    27    32    40    1
    28    32    49    1
    29    33    37    1
    30    33    38    1
    31    34    37    1
    32    35    36    1
    33    35    46    2
    34    36    39    1
    35    36    50    1
    36    38    45    1
    37    38    54    1
    38    38    55    1
    39    39    43    1
    40    39    51    1
    41    39    56    1
    42    40    43    1
    43    41    46    1
    44    42    48    1
    45    45    48    1
    46    50    52    1
    47    51     2    1
    48    51    53    1
    49    52    53    1
    50    52    57    1
    51    52    58    1
    52    53     3    1
    53    59     1    1
    54    59    61    1
    55    60     2    1
    56    60    62    1
    57    61     7    1
    58    61    63    1
    59    62     8    1
    60    62    64    1
    61    63     9    1
    62    63    66    1
    63    64    10    1
    64    64    68    1
    65    65    66    1
    66    65    70    1
    67    66    11    1
    68    67    68    1
    69    68    12    1
    70    69     7    1
    71    69    71    1
    72    71    16    1
    73    71    73    1
    74    72    10    1
    75    72    75    1
    76    73    18    1
    77    73    76    1
    78    74    76    1
    79    74    78    1
    80    75    19    1
    81    75    77    1
    82    76    20    1
    83    77    21    1
    84    77    80    1
    85    79    80    1
    86    80    24    1
    87    81    16    1
    88    81    82    1
    89    82    25    1
    90    82    83    1
    91    83    26    1
    92    83    85    1
    93    84    85    1
    94    84    86    1
    95    85    27    1
