@<TRIPOS>MOLECULE
IMPHY008625
 61 62 0 0 0
SMALL
GASTEIGER

@<TRIPOS>ATOM
      1 O           5.1350    0.0600    0.0000 O.3     1  UNL1       -0.4792
      2 O           5.1350    2.0600    0.0000 O.3     1  UNL1       -0.3835
      3 O           9.4651    1.5600    0.0000 O.3     1  UNL1       -0.4913
      4 O           7.7331    4.5600    0.0000 O.3     1  UNL1       -0.4913
      5 O           9.4651    3.5600    0.0000 O.3     1  UNL1       -0.4885
      6 O           3.4030   -0.9400    0.0000 O.3     1  UNL1       -0.4913
      7 O           6.8671   -0.9400    0.0000 O.3     1  UNL1       -0.4913
      8 O           2.5369   -4.4400    0.0000 O.3     1  UNL1       -0.3910
      9 C           6.0010    1.5600    0.0000 C.3     1  UNL1        0.1168
     10 C           6.0010    0.5600    0.0000 C.3     1  UNL1        0.1276
     11 C           6.8671    2.0600    0.0000 C.ar    1  UNL1       -0.0085
     12 C           6.8671    0.0600    0.0000 C.3     1  UNL1       -0.0250
     13 C           6.8671    3.0600    0.0000 C.ar    1  UNL1       -0.0103
     14 C           7.7331    1.5600    0.0000 C.ar    1  UNL1       -0.0103
     15 C           5.1350   -0.9400    0.0000 C.ar    1  UNL1        0.2041
     16 C           8.5991    2.0600    0.0000 C.ar    1  UNL1        0.1655
     17 C           7.7331    3.5600    0.0000 C.ar    1  UNL1        0.1655
     18 C           8.5991    3.0600    0.0000 C.ar    1  UNL1        0.2035
     19 C           4.2690   -1.4400    0.0000 C.ar    1  UNL1        0.1657
     20 C           6.0010   -1.4400    0.0000 C.ar    1  UNL1        0.1657
     21 C           5.1350   -2.9400    0.0000 C.ar    1  UNL1       -0.0181
     22 C           4.2690   -2.4400    0.0000 C.ar    1  UNL1       -0.0089
     23 C           6.0010   -2.4400    0.0000 C.ar    1  UNL1       -0.0089
     24 C           5.1350   -3.9400    0.0000 C.2     1  UNL1       -0.0562
     25 C          10.3312    2.0600    0.0000 C.3     1  UNL1        0.0790
     26 C           6.8671    5.0600    0.0000 C.3     1  UNL1        0.0790
     27 C           9.4651    4.5600    0.0000 C.3     1  UNL1        0.0791
     28 C           2.5369   -1.4400    0.0000 C.3     1  UNL1        0.0790
     29 C           7.7331   -1.4400    0.0000 C.3     1  UNL1        0.0790
     30 C           4.2690   -4.4400    0.0000 C.2     1  UNL1       -0.0584
     31 C           3.4030   -3.9400    0.0000 C.3     1  UNL1        0.0627
     32 H           6.0010    2.1800    0.0000 H       1  UNL1        0.0681
     33 H           5.4641    0.8700    0.0000 H       1  UNL1        0.0760
     34 H           6.5571   -0.4769    0.0000 H       1  UNL1        0.0266
     35 H           7.4040   -0.2500    0.0000 H       1  UNL1        0.0266
     36 H           7.1771    0.5969    0.0000 H       1  UNL1        0.0266
     37 H           6.3301    3.3700    0.0000 H       1  UNL1        0.0659
     38 H           7.7331    0.9400    0.0000 H       1  UNL1        0.0659
     39 H           5.1350    2.6800    0.0000 H       1  UNL1        0.2104
     40 H           3.7320   -2.7500    0.0000 H       1  UNL1        0.0661
     41 H           6.5380   -2.7500    0.0000 H       1  UNL1        0.0661
     42 H           5.6720   -4.2500    0.0000 H       1  UNL1        0.0621
     43 H          10.6412    1.5231    0.0000 H       1  UNL1        0.0660
     44 H          10.8681    2.3700    0.0000 H       1  UNL1        0.0660
     45 H          10.0212    2.5969    0.0000 H       1  UNL1        0.0660
     46 H           7.1771    5.5969    0.0000 H       1  UNL1        0.0660
     47 H           6.3301    5.3700    0.0000 H       1  UNL1        0.0660
     48 H           6.5571    4.5231    0.0000 H       1  UNL1        0.0660
     49 H          10.0851    4.5600    0.0000 H       1  UNL1        0.0660
     50 H           9.4651    5.1800    0.0000 H       1  UNL1        0.0660
     51 H           8.8451    4.5600    0.0000 H       1  UNL1        0.0660
     52 H           2.2269   -0.9031    0.0000 H       1  UNL1        0.0660
     53 H           2.0000   -1.7500    0.0000 H       1  UNL1        0.0660
     54 H           2.8469   -1.9769    0.0000 H       1  UNL1        0.0660
     55 H           7.4231   -1.9769    0.0000 H       1  UNL1        0.0660
     56 H           8.2700   -1.7500    0.0000 H       1  UNL1        0.0660
     57 H           8.0431   -0.9031    0.0000 H       1  UNL1        0.0660
     58 H           4.2690   -5.0600    0.0000 H       1  UNL1        0.0595
     59 H           3.8015   -3.4650    0.0000 H       1  UNL1        0.0601
     60 H           3.0044   -3.4650    0.0000 H       1  UNL1        0.0601
     61 H           2.0000   -4.1300    0.0000 H       1  UNL1        0.2098
@<TRIPOS>BOND
     1     1    10    1
     2     1    15    1
     3     2     9    1
     4     2    39    1
     5     3    16    1
     6     3    25    1
     7     4    17    1
     8     4    26    1
     9     5    18    1
    10     5    27    1
    11     6    19    1
    12     6    28    1
    13     7    20    1
    14     7    29    1
    15     8    31    1
    16     8    61    1
    17     9    10    1
    18     9    11    1
    19     9    32    1
    20    10    12    1
    21    10    33    1
    22    11    13   ar
    23    11    14   ar
    24    12    34    1
    25    12    35    1
    26    12    36    1
    27    13    17   ar
    28    13    37    1
    29    14    16   ar
    30    14    38    1
    31    15    19   ar
    32    15    20   ar
    33    16    18   ar
    34    17    18   ar
    35    19    22   ar
    36    20    23   ar
    37    21    22   ar
    38    21    23   ar
    39    21    24    1
    40    22    40    1
    41    23    41    1
    42    24    30    2
    43    24    42    1
    44    25    43    1
    45    25    44    1
    46    25    45    1
    47    26    46    1
    48    26    47    1
    49    26    48    1
    50    27    49    1
    51    27    50    1
    52    27    51    1
    53    28    52    1
    54    28    53    1
    55    28    54    1
    56    29    55    1
    57    29    56    1
    58    29    57    1
    59    30    31    1
    60    30    58    1
    61    31    59    1
    62    31    60    1
