@<TRIPOS>MOLECULE
IMPHY007443
 40 42 0 0 0
SMALL
GASTEIGER

@<TRIPOS>ATOM
      1 O           2.8660   -0.8653    0.0000 O.3     1  UNL1       -0.4914
      2 O           2.8660   -2.8653    0.0000 O.3     1  UNL1       -0.5033
      3 O           6.3118    3.1691    0.0000 O.3     1  UNL1       -0.5068
      4 N           7.2641   -2.3861    0.0000 N.3     1  UNL1       -0.3003
      5 C           6.3580   -0.8306    0.0000 C.3     1  UNL1        0.0224
      6 C           7.2641   -1.3445    0.0000 C.3     1  UNL1        0.0098
      7 C           5.4641   -1.3653    0.0000 C.ar    1  UNL1       -0.0307
      8 C           6.3580   -2.9000    0.0000 C.3     1  UNL1        0.0242
      9 C           5.4641   -2.3653    0.0000 C.ar    1  UNL1       -0.0259
     10 C           6.3465    0.1693    0.0000 C.ar    1  UNL1       -0.0385
     11 C           4.5981   -0.8653    0.0000 C.ar    1  UNL1       -0.0122
     12 C           4.5981   -2.8653    0.0000 C.ar    1  UNL1       -0.0118
     13 C           8.1282   -2.8894    0.0000 C.3     1  UNL1       -0.0124
     14 C           3.7320   -1.3653    0.0000 C.ar    1  UNL1        0.1616
     15 C           3.7320   -2.3653    0.0000 C.ar    1  UNL1        0.1588
     16 C           7.2067    0.6793    0.0000 C.ar    1  UNL1       -0.0545
     17 C           5.4747    0.6593    0.0000 C.ar    1  UNL1       -0.0545
     18 C           7.1951    1.6792    0.0000 C.ar    1  UNL1       -0.0199
     19 C           5.4632    1.6592    0.0000 C.ar    1  UNL1       -0.0199
     20 C           6.3233    2.1692    0.0000 C.ar    1  UNL1        0.1169
     21 C           2.0000   -1.3653    0.0000 C.3     1  UNL1        0.0790
     22 H           6.8920   -0.5155    0.0000 H       1  UNL1        0.0410
     23 H           7.8750   -1.4506    0.0000 H       1  UNL1        0.0436
     24 H           7.4732   -0.7608    0.0000 H       1  UNL1        0.0436
     25 H           5.9534   -3.3697    0.0000 H       1  UNL1        0.0476
     26 H           6.7517   -3.3790    0.0000 H       1  UNL1        0.0476
     27 H           4.5981   -0.2453    0.0000 H       1  UNL1        0.0658
     28 H           4.5981   -3.4853    0.0000 H       1  UNL1        0.0658
     29 H           7.8161   -3.4252    0.0000 H       1  UNL1        0.0391
     30 H           8.6639   -3.2015    0.0000 H       1  UNL1        0.0391
     31 H           8.4403   -2.3537    0.0000 H       1  UNL1        0.0391
     32 H           7.7472    0.3755    0.0000 H       1  UNL1        0.0622
     33 H           4.9414    0.3431    0.0000 H       1  UNL1        0.0622
     34 H           7.7284    1.9954    0.0000 H       1  UNL1        0.0654
     35 H           4.9227    1.9630    0.0000 H       1  UNL1        0.0654
     36 H           2.8660   -3.4853    0.0000 H       1  UNL1        0.2923
     37 H           1.6900   -0.8284    0.0000 H       1  UNL1        0.0660
     38 H           1.4631   -1.6753    0.0000 H       1  UNL1        0.0660
     39 H           2.3100   -1.9022    0.0000 H       1  UNL1        0.0660
     40 H           6.8451    3.4853    0.0000 H       1  UNL1        0.2921
@<TRIPOS>BOND
     1     1    14    1
     2     1    21    1
     3     2    15    1
     4     2    36    1
     5     3    20    1
     6     3    40    1
     7     4     6    1
     8     4     8    1
     9     4    13    1
    10     5     6    1
    11     5     7    1
    12     5    10    1
    13     5    22    1
    14     6    23    1
    15     6    24    1
    16     7     9   ar
    17     7    11   ar
    18     8     9    1
    19     8    25    1
    20     8    26    1
    21     9    12   ar
    22    10    16   ar
    23    10    17   ar
    24    11    14   ar
    25    11    27    1
    26    12    15   ar
    27    12    28    1
    28    13    29    1
    29    13    30    1
    30    13    31    1
    31    14    15   ar
    32    16    18   ar
    33    16    32    1
    34    17    19   ar
    35    17    33    1
    36    18    20   ar
    37    18    34    1
    38    19    20   ar
    39    19    35    1
    40    21    37    1
    41    21    38    1
    42    21    39    1
