@<TRIPOS>MOLECULE
IMPHY006180
 122 128 0 0 0
SMALL
GASTEIGER

@<TRIPOS>ATOM
      1 O          15.1835    1.7055    0.0000 O.3     1  UNL1       -0.3601
      2 O          14.3037   -1.7916    0.0000 O.3     1  UNL1       -0.4571
      3 O          12.5755   -0.7849    0.0000 O.3     1  UNL1       -0.4570
      4 O           9.7942    2.7782    0.0000 O.3     1  UNL1       -0.3480
      5 O          16.6524   -2.2517    0.0000 O.2     1  UNL1       -0.2974
      6 O          13.4358   -2.2882    0.0000 O.2     1  UNL1       -0.2505
      7 O          15.8004   -2.6634    0.0000 O.2     1  UNL1       -0.2512
      8 O           8.0622    2.7782    0.0000 O.3     1  UNL1       -0.3456
      9 O           8.0622   -0.2218    0.0000 O.3     1  UNL1       -0.3770
     10 O           6.3301    0.7782    0.0000 O.3     1  UNL1       -0.3403
     11 O           5.4641    2.2782    0.0000 O.3     1  UNL1       -0.3431
     12 O           4.5981   -0.2218    0.0000 O.3     1  UNL1       -0.3841
     13 O           2.8660    0.7782    0.0000 O.3     1  UNL1       -0.3744
     14 O           2.8660    2.7782    0.0000 O.3     1  UNL1       -0.3866
     15 C          15.1794    0.7051    0.0000 C.3     1  UNL1        0.1090
     16 C          14.3153    1.2084    0.0000 C.3     1  UNL1        0.1066
     17 C          15.1755   -0.2949    0.0000 C.3     1  UNL1        0.0496
     18 C          13.4473    0.7118    0.0000 C.3     1  UNL1        0.0371
     19 C          12.5393    1.2221    0.0000 C.3     1  UNL1       -0.0200
     20 C          16.1267    1.0062    0.0000 C.3     1  UNL1       -0.0197
     21 C          14.3076   -0.7916    0.0000 C.3     1  UNL1        0.1487
     22 C          14.3353    2.2499    0.0000 C.3     1  UNL1       -0.0203
     23 C          13.4435   -0.2882    0.0000 C.3     1  UNL1        0.1464
     24 C          16.1205   -0.6033    0.0000 C.3     1  UNL1        0.0289
     25 C          12.5353    2.2637    0.0000 C.3     1  UNL1       -0.0327
     26 C          16.7073    0.1992    0.0000 C.3     1  UNL1       -0.0401
     27 C          13.4393    2.7811    0.0000 C.3     1  UNL1       -0.0469
     28 C          15.1717   -1.2949    0.0000 C.3     1  UNL1       -0.0527
     29 C          11.6103    0.6616    0.0000 C.3     1  UNL1       -0.0446
     30 C          12.5431    0.2221    0.0000 C.3     1  UNL1       -0.0588
     31 C          11.6020    2.8171    0.0000 C.3     1  UNL1       -0.0232
     32 C          10.6644    1.1932    0.0000 C.3     1  UNL1       -0.0260
     33 C          16.8623   -1.2740    0.0000 C.2     1  UNL1        0.1341
     34 C          10.6603    2.2782    0.0000 C.3     1  UNL1        0.0620
     35 C          17.8140   -0.9670    0.0000 C.3     1  UNL1       -0.0058
     36 C          12.5717   -1.7849    0.0000 C.2     1  UNL1        0.3103
     37 C          14.8004   -2.6595    0.0000 C.2     1  UNL1        0.3043
     38 C          11.7037   -2.2815    0.0000 C.3     1  UNL1        0.0534
     39 C           8.9282    2.2782    0.0000 C.3     1  UNL1        0.1624
     40 C          14.2970   -3.5236    0.0000 C.3     1  UNL1        0.0332
     41 C          11.6999   -3.2815    0.0000 C.3     1  UNL1       -0.0432
     42 C           8.9282    1.2782    0.0000 C.3     1  UNL1        0.0272
     43 C          10.8396   -1.7782    0.0000 C.3     1  UNL1       -0.0523
     44 C           8.0622    0.7782    0.0000 C.3     1  UNL1        0.0915
     45 C           7.1962    2.2782    0.0000 C.3     1  UNL1        0.0875
     46 C           7.1962    1.2782    0.0000 C.3     1  UNL1        0.1138
     47 C          10.8319   -3.7782    0.0000 C.3     1  UNL1       -0.0645
     48 C           6.3301    2.7782    0.0000 C.3     1  UNL1       -0.0361
     49 C           5.4641    1.2782    0.0000 C.3     1  UNL1        0.1883
     50 C           8.9282   -0.7218    0.0000 C.3     1  UNL1        0.0369
     51 C           4.5981    0.7782    0.0000 C.3     1  UNL1        0.1344
     52 C           3.7320    1.2782    0.0000 C.3     1  UNL1        0.1170
     53 C           4.5981    2.7782    0.0000 C.3     1  UNL1        0.0873
     54 C           3.7320    2.2782    0.0000 C.3     1  UNL1        0.1097
     55 C           4.5981    3.7782    0.0000 C.3     1  UNL1       -0.0361
     56 C           2.0000    1.2782    0.0000 C.3     1  UNL1        0.0370
     57 H          14.1818    0.2839    0.0000 H       1  UNL1        0.0372
     58 H          16.6653    1.3133    0.0000 H       1  UNL1        0.0294
     59 H          15.8779    1.5740    0.0000 H       1  UNL1        0.0294
     60 H          13.7694   -1.0995    0.0000 H       1  UNL1        0.0778
     61 H          14.9440    2.1320    0.0000 H       1  UNL1        0.0294
     62 H          14.5556    2.8294    0.0000 H       1  UNL1        0.0294
     63 H          12.9077    0.0238    0.0000 H       1  UNL1        0.0775
     64 H          15.8096   -1.1397    0.0000 H       1  UNL1        0.0385
     65 H          12.5418    3.1137    0.0000 H       1  UNL1        0.0307
     66 H          17.1665   -0.2173    0.0000 H       1  UNL1        0.0273
     67 H          17.1697    0.6121    0.0000 H       1  UNL1        0.0273
     68 H          13.8421    3.2524    0.0000 H       1  UNL1        0.0269
     69 H          13.0439    3.2586    0.0000 H       1  UNL1        0.0269
     70 H          14.5517   -1.2925    0.0000 H       1  UNL1        0.0237
     71 H          15.1693   -1.9149    0.0000 H       1  UNL1        0.0237
     72 H          15.7916   -1.2973    0.0000 H       1  UNL1        0.0237
     73 H          11.2185    0.1811    0.0000 H       1  UNL1        0.0272
     74 H          12.0167    0.1934    0.0000 H       1  UNL1        0.0272
     75 H          11.9231    0.2197    0.0000 H       1  UNL1        0.0235
     76 H          12.5455   -0.3979    0.0000 H       1  UNL1        0.0235
     77 H          13.1631    0.2245    0.0000 H       1  UNL1        0.0235
     78 H          12.0048    3.2884    0.0000 H       1  UNL1        0.0293
     79 H          11.2065    3.2946    0.0000 H       1  UNL1        0.0293
     80 H          10.0532    1.2969    0.0000 H       1  UNL1        0.0290
     81 H          10.4576    0.6087    0.0000 H       1  UNL1        0.0290
     82 H          10.6614    2.8982    0.0000 H       1  UNL1        0.0597
     83 H          18.0043   -1.5571    0.0000 H       1  UNL1        0.0306
     84 H          18.4040   -0.7767    0.0000 H       1  UNL1        0.0306
     85 H          17.6236   -0.3769    0.0000 H       1  UNL1        0.0306
     86 H          11.1656   -2.5895    0.0000 H       1  UNL1        0.0410
     87 H           9.4651    1.9682    0.0000 H       1  UNL1        0.0910
     88 H          13.7613   -3.2115    0.0000 H       1  UNL1        0.0342
     89 H          13.9850   -4.0593    0.0000 H       1  UNL1        0.0342
     90 H          14.8328   -3.8357    0.0000 H       1  UNL1        0.0342
     91 H          11.9097   -3.8650    0.0000 H       1  UNL1        0.0270
     92 H          12.3109   -3.1762    0.0000 H       1  UNL1        0.0270
     93 H           9.1403    0.6956    0.0000 H       1  UNL1        0.0340
     94 H           9.5388    1.3858    0.0000 H       1  UNL1        0.0340
     95 H          11.1517   -1.2425    0.0000 H       1  UNL1        0.0238
     96 H          10.3039   -1.4661    0.0000 H       1  UNL1        0.0238
     97 H          10.5276   -2.3139    0.0000 H       1  UNL1        0.0238
     98 H           7.5252    0.4682    0.0000 H       1  UNL1        0.0624
     99 H           7.1962    2.8982    0.0000 H       1  UNL1        0.0621
    100 H           6.6592    1.5882    0.0000 H       1  UNL1        0.0649
    101 H          10.5240   -3.2401    0.0000 H       1  UNL1        0.0230
    102 H          10.2938   -4.0861    0.0000 H       1  UNL1        0.0230
    103 H          11.1399   -4.3163    0.0000 H       1  UNL1        0.0230
    104 H           6.6401    3.3151    0.0000 H       1  UNL1        0.0255
    105 H           5.7932    3.0882    0.0000 H       1  UNL1        0.0255
    106 H           6.0201    2.2412    0.0000 H       1  UNL1        0.0255
    107 H           5.4641    0.6582    0.0000 H       1  UNL1        0.0938
    108 H           8.6182   -1.2588    0.0000 H       1  UNL1        0.0524
    109 H           9.4651   -1.0318    0.0000 H       1  UNL1        0.0524
    110 H           9.2382   -0.1849    0.0000 H       1  UNL1        0.0524
    111 H           4.0611    0.4682    0.0000 H       1  UNL1        0.0671
    112 H           3.1951    1.5882    0.0000 H       1  UNL1        0.0650
    113 H           5.1350    3.0882    0.0000 H       1  UNL1        0.0621
    114 H           3.7320    2.8982    0.0000 H       1  UNL1        0.0646
    115 H           4.0611   -0.5318    0.0000 H       1  UNL1        0.2101
    116 H           5.2181    3.7782    0.0000 H       1  UNL1        0.0255
    117 H           4.5981    4.3982    0.0000 H       1  UNL1        0.0255
    118 H           3.9781    3.7782    0.0000 H       1  UNL1        0.0255
    119 H           2.8660    3.3982    0.0000 H       1  UNL1        0.2100
    120 H           2.3100    1.8151    0.0000 H       1  UNL1        0.0524
    121 H           1.4631    1.5882    0.0000 H       1  UNL1        0.0524
    122 H           1.6900    0.7413    0.0000 H       1  UNL1        0.0524
@<TRIPOS>BOND
     1    15     1    1
     2    16     1    1
     3    21     2    1
     4     2    37    1
     5    23     3    1
     6     3    36    1
     7    34     4    1
     8    39     4    1
     9     5    33    2
    10     6    36    2
    11     7    37    2
    12     8    39    1
    13     8    45    1
    14    44     9    1
    15     9    50    1
    16    46    10    1
    17    49    10    1
    18    11    49    1
    19    11    53    1
    20    51    12    1
    21    12   115    1
    22    52    13    1
    23    13    56    1
    24    54    14    1
    25    14   119    1
    26    15    16    1
    27    15    17    1
    28    15    20    1
    29    16    18    1
    30    16    22    1
    31    17    21    1
    32    17    24    1
    33    17    28    1
    34    18    19    1
    35    18    23    1
    36    18    57    1
    37    19    25    1
    38    19    29    1
    39    19    30    1
    40    20    26    1
    41    20    58    1
    42    20    59    1
    43    21    23    1
    44    21    60    1
    45    22    27    1
    46    22    61    1
    47    22    62    1
    48    23    63    1
    49    24    26    1
    50    24    33    1
    51    24    64    1
    52    25    27    1
    53    25    31    1
    54    25    65    1
    55    26    66    1
    56    26    67    1
    57    27    68    1
    58    27    69    1
    59    28    70    1
    60    28    71    1
    61    28    72    1
    62    29    32    1
    63    29    73    1
    64    29    74    1
    65    30    75    1
    66    30    76    1
    67    30    77    1
    68    31    34    1
    69    31    78    1
    70    31    79    1
    71    32    34    1
    72    32    80    1
    73    32    81    1
    74    33    35    1
    75    34    82    1
    76    35    83    1
    77    35    84    1
    78    35    85    1
    79    36    38    1
    80    37    40    1
    81    38    41    1
    82    38    43    1
    83    38    86    1
    84    39    42    1
    85    39    87    1
    86    40    88    1
    87    40    89    1
    88    40    90    1
    89    41    47    1
    90    41    91    1
    91    41    92    1
    92    42    44    1
    93    42    93    1
    94    42    94    1
    95    43    95    1
    96    43    96    1
    97    43    97    1
    98    44    46    1
    99    44    98    1
   100    45    46    1
   101    45    48    1
   102    45    99    1
   103    46   100    1
   104    47   101    1
   105    47   102    1
   106    47   103    1
   107    48   104    1
   108    48   105    1
   109    48   106    1
   110    49    51    1
   111    49   107    1
   112    50   108    1
   113    50   109    1
   114    50   110    1
   115    51    52    1
   116    51   111    1
   117    52    54    1
   118    52   112    1
   119    53    54    1
   120    53    55    1
   121    53   113    1
   122    54   114    1
   123    55   116    1
   124    55   117    1
   125    55   118    1
   126    56   120    1
   127    56   121    1
   128    56   122    1
