@<TRIPOS>MOLECULE
IMPHY008838
 25 29 0 0 0
SMALL
GASTEIGER

@<TRIPOS>ATOM
      1 O           7.0301   -1.7811    0.0000 O.2     1  UNL1       -0.4500
      2 O          10.6023   -1.5511    0.0000 O.2     1  UNL1       -0.4502
      3 O           8.7901    1.2536    0.0000 O.3     1  UNL1       -0.4711
      4 O           2.5805   -0.0167    0.0000 O.3     1  UNL1       -0.4346
      5 O           2.5867    1.5928    0.0000 O.3     1  UNL1       -0.4346
      6 O           7.0417    1.2882    0.0000 O.2     1  UNL1       -0.2863
      7 C           7.9240   -0.2464    0.0000 C.ar    1  UNL1        0.1076
      8 C           7.9240   -1.2464    0.0000 C.ar    1  UNL1        0.1544
      9 C           8.7901    0.2536    0.0000 C.ar    1  UNL1        0.1477
     10 C           6.1240   -0.2256    0.0000 C.ar    1  UNL1        0.0768
     11 C           9.6561   -0.2464    0.0000 C.ar    1  UNL1        0.0719
     12 C           7.0301    0.2883    0.0000 C.ar    1  UNL1        0.2045
     13 C           5.2599    0.2777    0.0000 C.ar    1  UNL1        0.0094
     14 C           9.6561   -1.2464    0.0000 C.ar    1  UNL1        0.1514
     15 C           8.7901   -1.7464    0.0000 C.ar    1  UNL1        0.0752
     16 C           4.3920   -0.2189    0.0000 C.ar    1  UNL1        0.0404
     17 C           6.1240   -1.2672    0.0000 C.ar    1  UNL1        0.1826
     18 C           3.5279    0.2844    0.0000 C.ar    1  UNL1        0.1764
     19 C           3.5317    1.2844    0.0000 C.ar    1  UNL1        0.1764
     20 C           5.2638    1.2777    0.0000 C.ar    1  UNL1        0.0035
     21 C          10.6023    0.0583    0.0000 C.ar    1  UNL1        0.0467
     22 C           4.3997    1.7811    0.0000 C.ar    1  UNL1        0.0402
     23 C          11.1859   -0.7464    0.0000 C.ar    1  UNL1        0.1797
     24 C           2.0000    0.7903    0.0000 C.3     1  UNL1        0.4294
     25 C           9.6561    1.7536    0.0000 C.3     1  UNL1        0.2525
@<TRIPOS>BOND
     1     1     8   ar
     2     1    17   ar
     3     2    14   ar
     4     2    23   ar
     5     3     9    1
     6     3    25    1
     7     4    18    1
     8     4    24    1
     9     5    19    1
    10     5    24    1
    11     6    12    2
    12     7     8   ar
    13     7     9   ar
    14     7    12   ar
    15     8    15   ar
    16     9    11   ar
    17    10    12   ar
    18    10    13    1
    19    10    17   ar
    20    11    14   ar
    21    11    21   ar
    22    13    16   ar
    23    13    20   ar
    24    14    15   ar
    25    16    18   ar
    26    18    19   ar
    27    19    22   ar
    28    20    22   ar
    29    21    23   ar
