@<TRIPOS>MOLECULE
IMPHY012609
 77 84 0 0 0
SMALL
GASTEIGER

@<TRIPOS>ATOM
      1 O           2.7168   -1.4236    0.0000 O.3     1  UNL1       -0.3613
      2 O           2.5810   -2.1308    0.0000 O.3     1  UNL1       -0.3840
      3 O           6.2194   -0.4201    0.0000 O.3     1  UNL1       -0.3839
      4 O           6.2351   -2.4683    0.0000 O.2     1  UNL1       -0.2936
      5 O           4.4613    3.6461    0.0000 O.3     1  UNL1       -0.3416
      6 O           6.2950   -5.0746    0.0000 O.3     1  UNL1       -0.4568
      7 O           6.1933    3.6527    0.0000 O.3     1  UNL1       -0.3392
      8 O           5.6408   -6.7322    0.0000 O.2     1  UNL1       -0.2456
      9 O           6.3910    6.6253    0.0000 O.3     1  UNL1       -0.3405
     10 O           4.4536    5.6460    0.0000 O.2     1  UNL1       -0.2891
     11 O           7.7880    5.8260    0.0000 O.3     1  UNL1       -0.3452
     12 C           3.5831   -0.9232    0.0000 C.3     1  UNL1        0.1319
     13 C           4.4492   -0.4232    0.0000 C.3     1  UNL1        0.0319
     14 C           2.7171   -0.4232    0.0000 C.3     1  UNL1        0.0919
     15 C           4.4492    0.5768    0.0000 C.3     1  UNL1       -0.0206
     16 C           3.5671   -1.9647    0.0000 C.3     1  UNL1        0.1171
     17 C           3.5831    1.0768    0.0000 C.3     1  UNL1       -0.0304
     18 C           2.7171    0.5768    0.0000 C.3     1  UNL1       -0.0203
     19 C           4.4651   -2.4924    0.0000 C.3     1  UNL1        0.0854
     20 C           5.3592   -0.9300    0.0000 C.3     1  UNL1        0.1201
     21 C           5.3592    1.0836    0.0000 C.3     1  UNL1       -0.0446
     22 C           2.7940   -2.6536    0.0000 C.3     1  UNL1       -0.0011
     23 C           5.3672   -1.9716    0.0000 C.2     1  UNL1        0.1748
     24 C           3.5671    2.1183    0.0000 C.3     1  UNL1       -0.0231
     25 C           5.3152    0.0768    0.0000 C.3     1  UNL1       -0.0589
     26 C           4.2394   -3.5030    0.0000 C.2     1  UNL1       -0.0287
     27 C           5.3672    2.1252    0.0000 C.3     1  UNL1       -0.0260
     28 C           4.4651    2.6461    0.0000 C.3     1  UNL1        0.0624
     29 C           5.3273   -2.9991    0.0000 C.3     1  UNL1       -0.0459
     30 C           3.2087   -3.6024    0.0000 C.2     1  UNL1       -0.0766
     31 C           4.9015   -4.2524    0.0000 C.2     1  UNL1        0.0004
     32 C           5.8970   -4.1573    0.0000 C.3     1  UNL1        0.1183
     33 C           4.6844   -5.2286    0.0000 C.2     1  UNL1        0.0292
     34 C           5.3254    4.1494    0.0000 C.3     1  UNL1        0.2222
     35 C           5.5456   -5.7367    0.0000 C.2     1  UNL1        0.3326
     36 C           5.3215    5.1494    0.0000 C.2     1  UNL1        0.2198
     37 C           6.1856    5.6527    0.0000 C.3     1  UNL1        0.1526
     38 C           7.0574    4.1561    0.0000 C.3     1  UNL1        0.0883
     39 C           7.0535    5.1561    0.0000 C.3     1  UNL1        0.1204
     40 C           7.9253    3.6594    0.0000 C.3     1  UNL1       -0.0360
     41 C           7.3794    6.7322    0.0000 C.3     1  UNL1        0.1497
     42 H           4.9837   -0.1091    0.0000 H       1  UNL1        0.0365
     43 H           2.0971   -0.4231    0.0000 H       1  UNL1        0.0626
     44 H           3.0438    1.3827    0.0000 H       1  UNL1        0.0308
     45 H           2.5051    1.1594    0.0000 H       1  UNL1        0.0294
     46 H           2.1065    0.4691    0.0000 H       1  UNL1        0.0294
     47 H           5.3508   -0.3101    0.0000 H       1  UNL1        0.0677
     48 H           5.5637    0.4984    0.0000 H       1  UNL1        0.0272
     49 H           5.9708    1.1850    0.0000 H       1  UNL1        0.0272
     50 H           2.4325   -2.1500    0.0000 H       1  UNL1        0.0337
     51 H           2.2552   -2.9602    0.0000 H       1  UNL1        0.0337
     52 H           3.3490    2.6987    0.0000 H       1  UNL1        0.0293
     53 H           2.9579    2.0028    0.0000 H       1  UNL1        0.0293
     54 H           5.0052   -0.4601    0.0000 H       1  UNL1        0.0235
     55 H           5.8521   -0.2332    0.0000 H       1  UNL1        0.0235
     56 H           5.6252    0.6137    0.0000 H       1  UNL1        0.0235
     57 H           5.9772    2.0145    0.0000 H       1  UNL1        0.0290
     58 H           5.5807    2.7073    0.0000 H       1  UNL1        0.0290
     59 H           5.0014    2.9571    0.0000 H       1  UNL1        0.0597
     60 H           5.0131   -3.5336    0.0000 H       1  UNL1        0.0243
     61 H           5.8618   -3.3132    0.0000 H       1  UNL1        0.0243
     62 H           5.6414   -2.4646    0.0000 H       1  UNL1        0.0243
     63 H           2.8946   -4.1370    0.0000 H       1  UNL1        0.0576
     64 H           2.0000   -1.9142    0.0000 H       1  UNL1        0.2104
     65 H           6.7598   -0.7238    0.0000 H       1  UNL1        0.2104
     66 H           6.4884   -3.9713    0.0000 H       1  UNL1        0.0749
     67 H           5.7738   -3.5497    0.0000 H       1  UNL1        0.0749
     68 H           4.1156   -5.4754    0.0000 H       1  UNL1        0.0693
     69 H           5.3277    3.5294    0.0000 H       1  UNL1        0.0996
     70 H           5.6831    6.0159    0.0000 H       1  UNL1        0.0705
     71 H           7.0598    3.5361    0.0000 H       1  UNL1        0.0621
     72 H           7.6212    4.9068    0.0000 H       1  UNL1        0.0653
     73 H           7.6174    3.1213    0.0000 H       1  UNL1        0.0255
     74 H           8.4635    3.3515    0.0000 H       1  UNL1        0.0255
     75 H           8.2333    4.1975    0.0000 H       1  UNL1        0.0255
     76 H           7.9682    6.9262    0.0000 H       1  UNL1        0.0872
     77 H           7.2483    7.3382    0.0000 H       1  UNL1        0.0872
@<TRIPOS>BOND
     1     1    12    1
     2     1    14    1
     3     2    16    1
     4     2    64    1
     5     3    20    1
     6     3    65    1
     7     4    23    2
     8     5    28    1
     9     5    34    1
    10     6    32    1
    11     6    35    1
    12     7    34    1
    13     7    38    1
    14     8    35    2
    15     9    37    1
    16     9    41    1
    17    10    36    2
    18    11    39    1
    19    11    41    1
    20    12    13    1
    21    12    14    1
    22    12    16    1
    23    13    15    1
    24    13    20    1
    25    13    42    1
    26    14    18    1
    27    14    43    1
    28    15    17    1
    29    15    21    1
    30    15    25    1
    31    16    19    1
    32    16    22    1
    33    17    18    1
    34    17    24    1
    35    17    44    1
    36    18    45    1
    37    18    46    1
    38    19    23    1
    39    19    26    1
    40    19    29    1
    41    20    23    1
    42    20    47    1
    43    21    27    1
    44    21    48    1
    45    21    49    1
    46    22    30    1
    47    22    50    1
    48    22    51    1
    49    24    28    1
    50    24    52    1
    51    24    53    1
    52    25    54    1
    53    25    55    1
    54    25    56    1
    55    26    30    2
    56    26    31    1
    57    27    28    1
    58    27    57    1
    59    27    58    1
    60    28    59    1
    61    29    60    1
    62    29    61    1
    63    29    62    1
    64    30    63    1
    65    31    32    1
    66    31    33    2
    67    32    66    1
    68    32    67    1
    69    33    35    1
    70    33    68    1
    71    34    36    1
    72    34    69    1
    73    36    37    1
    74    37    39    1
    75    37    70    1
    76    38    39    1
    77    38    40    1
    78    38    71    1
    79    39    72    1
    80    40    73    1
    81    40    74    1
    82    40    75    1
    83    41    76    1
    84    41    77    1
