@<TRIPOS>MOLECULE
IMPHY009058
 55 58 0 0 0
SMALL
GASTEIGER

@<TRIPOS>ATOM
      1 O           8.0622    1.5000    0.0000 O.3     1  UNL1       -0.3709
      2 O           2.8660   -0.5000    0.0000 O.3     1  UNL1       -0.4914
      3 O           2.8660   -2.5000    0.0000 O.3     1  UNL1       -0.4915
      4 O           2.8660    2.5000    0.0000 O.3     1  UNL1       -0.4951
      5 N           8.0622   -0.5000    0.0000 N.3     1  UNL1       -0.2709
      6 C           8.0622    0.5000    0.0000 C.3     1  UNL1        0.1397
      7 C           9.0084    0.8047    0.0000 C.3     1  UNL1       -0.0051
      8 C           9.0084   -0.8047    0.0000 C.3     1  UNL1        0.0019
      9 C           7.1962   -1.0000    0.0000 C.3     1  UNL1        0.0126
     10 C           9.5920   -0.0000    0.0000 C.3     1  UNL1       -0.0359
     11 C           6.3301   -0.5000    0.0000 C.3     1  UNL1        0.0226
     12 C           7.1962    1.0000    0.0000 C.2     1  UNL1       -0.0335
     13 C           6.3301    0.5000    0.0000 C.2     1  UNL1       -0.0316
     14 C           5.4641   -1.0000    0.0000 C.ar    1  UNL1       -0.0351
     15 C           5.4641    1.0000    0.0000 C.ar    1  UNL1       -0.0212
     16 C           4.5981   -0.5000    0.0000 C.ar    1  UNL1       -0.0125
     17 C           5.4641   -2.0000    0.0000 C.ar    1  UNL1       -0.0543
     18 C           4.5981    0.5000    0.0000 C.ar    1  UNL1       -0.0509
     19 C           5.4641    2.0000    0.0000 C.ar    1  UNL1       -0.0509
     20 C           3.7320   -1.0000    0.0000 C.ar    1  UNL1        0.1618
     21 C           4.5981   -2.5000    0.0000 C.ar    1  UNL1       -0.0160
     22 C           3.7320   -2.0000    0.0000 C.ar    1  UNL1        0.1615
     23 C           3.7320    1.0000    0.0000 C.ar    1  UNL1       -0.0194
     24 C           4.5981    2.5000    0.0000 C.ar    1  UNL1       -0.0194
     25 C           3.7320    2.0000    0.0000 C.ar    1  UNL1        0.1201
     26 C           2.0000   -1.0000    0.0000 C.3     1  UNL1        0.0790
     27 C           2.8660   -3.5000    0.0000 C.3     1  UNL1        0.0790
     28 C           2.8660    3.5000    0.0000 C.3     1  UNL1        0.0788
     29 H           9.5458    1.1140    0.0000 H       1  UNL1        0.0310
     30 H           8.7574    1.3716    0.0000 H       1  UNL1        0.0310
     31 H           8.7574   -1.3716    0.0000 H       1  UNL1        0.0427
     32 H           9.5458   -1.1140    0.0000 H       1  UNL1        0.0427
     33 H           6.7976   -1.4750    0.0000 H       1  UNL1        0.0437
     34 H           7.5947   -1.4750    0.0000 H       1  UNL1        0.0437
     35 H          10.0529   -0.4147    0.0000 H       1  UNL1        0.0279
     36 H          10.0529    0.4147    0.0000 H       1  UNL1        0.0279
     37 H           5.7932   -0.1900    0.0000 H       1  UNL1        0.0410
     38 H           7.1962    1.6200    0.0000 H       1  UNL1        0.0617
     39 H           8.5991    1.8100    0.0000 H       1  UNL1        0.2121
     40 H           4.5981    0.1200    0.0000 H       1  UNL1        0.0658
     41 H           6.0010   -2.3100    0.0000 H       1  UNL1        0.0622
     42 H           4.5981   -0.1200    0.0000 H       1  UNL1        0.0625
     43 H           6.0010    2.3100    0.0000 H       1  UNL1        0.0625
     44 H           4.5981   -3.1200    0.0000 H       1  UNL1        0.0655
     45 H           3.1951    0.6900    0.0000 H       1  UNL1        0.0654
     46 H           4.5981    3.1200    0.0000 H       1  UNL1        0.0654
     47 H           1.6900   -0.4631    0.0000 H       1  UNL1        0.0660
     48 H           1.4631   -1.3100    0.0000 H       1  UNL1        0.0660
     49 H           2.3100   -1.5369    0.0000 H       1  UNL1        0.0660
     50 H           2.2460   -3.5000    0.0000 H       1  UNL1        0.0660
     51 H           2.8660   -4.1200    0.0000 H       1  UNL1        0.0660
     52 H           3.4860   -3.5000    0.0000 H       1  UNL1        0.0660
     53 H           3.4860    3.5000    0.0000 H       1  UNL1        0.0660
     54 H           2.8660    4.1200    0.0000 H       1  UNL1        0.0660
     55 H           2.2460    3.5000    0.0000 H       1  UNL1        0.0660
@<TRIPOS>BOND
     1     6     1    1
     2     1    39    1
     3     2    20    1
     4     2    26    1
     5     3    22    1
     6     3    27    1
     7     4    25    1
     8     4    28    1
     9     5     6    1
    10     5     8    1
    11     5     9    1
    12     6     7    1
    13     6    12    1
    14     7    10    1
    15     7    29    1
    16     7    30    1
    17     8    10    1
    18     8    31    1
    19     8    32    1
    20     9    11    1
    21     9    33    1
    22     9    34    1
    23    10    35    1
    24    10    36    1
    25    11    13    1
    26    11    14    1
    27    11    37    1
    28    12    13    2
    29    12    38    1
    30    13    15    1
    31    14    16   ar
    32    14    17   ar
    33    15    18   ar
    34    15    19   ar
    35    16    20   ar
    36    16    40    1
    37    17    21   ar
    38    17    41    1
    39    18    23   ar
    40    18    42    1
    41    19    24   ar
    42    19    43    1
    43    20    22   ar
    44    21    22   ar
    45    21    44    1
    46    23    25   ar
    47    23    45    1
    48    24    25   ar
    49    24    46    1
    50    26    47    1
    51    26    48    1
    52    26    49    1
    53    27    50    1
    54    27    51    1
    55    27    52    1
    56    28    53    1
    57    28    54    1
    58    28    55    1
