@<TRIPOS>MOLECULE
IMPHY005527
 44 45 0 0 0
SMALL
GASTEIGER

@<TRIPOS>ATOM
      1 O           8.9561   -3.4747    0.0000 O.2     1  UNL1       -0.4220
      2 O           5.4641   -3.4400    0.0000 O.3     1  UNL1       -0.5064
      3 O          10.7263   -3.4642    0.0000 O.2     1  UNL1       -0.2452
      4 C           4.5981    1.0600    0.0000 C.3     1  UNL1       -0.0286
      5 C           4.5981    0.0600    0.0000 C.2     1  UNL1       -0.0759
      6 C           5.4641   -1.4400    0.0000 C.3     1  UNL1       -0.0058
      7 C           6.3301   -1.9400    0.0000 C.ar    1  UNL1       -0.0014
      8 C           3.7320    1.5600    0.0000 C.3     1  UNL1       -0.0308
      9 C           5.4641   -0.4400    0.0000 C.2     1  UNL1       -0.0806
     10 C           7.1962   -1.4400    0.0000 C.ar    1  UNL1       -0.0441
     11 C           8.0622   -1.9400    0.0000 C.ar    1  UNL1        0.0181
     12 C           6.3301   -2.9400    0.0000 C.ar    1  UNL1        0.1238
     13 C           3.7320   -0.4400    0.0000 C.3     1  UNL1       -0.0438
     14 C           8.0622   -2.9400    0.0000 C.ar    1  UNL1        0.1425
     15 C           3.7320    2.5600    0.0000 C.2     1  UNL1       -0.0850
     16 C           7.1962   -3.4400    0.0000 C.ar    1  UNL1        0.0231
     17 C           2.8660    3.0600    0.0000 C.2     1  UNL1       -0.0796
     18 C           8.9561   -1.4053    0.0000 C.ar    1  UNL1       -0.0443
     19 C           9.8622   -1.9192    0.0000 C.ar    1  UNL1        0.0236
     20 C           2.8660    4.0600    0.0000 C.3     1  UNL1       -0.0440
     21 C           2.0000    2.5600    0.0000 C.3     1  UNL1       -0.0440
     22 C           9.8622   -2.9608    0.0000 C.ar    1  UNL1        0.3372
     23 H           5.2087    0.9523    0.0000 H       1  UNL1        0.0313
     24 H           4.8101    1.6426    0.0000 H       1  UNL1        0.0313
     25 H           4.8535   -1.3323    0.0000 H       1  UNL1        0.0357
     26 H           5.2520   -2.0226    0.0000 H       1  UNL1        0.0357
     27 H           3.1215    1.6677    0.0000 H       1  UNL1        0.0310
     28 H           3.5200    0.9774    0.0000 H       1  UNL1        0.0310
     29 H           6.0010   -0.1300    0.0000 H       1  UNL1        0.0575
     30 H           7.1962   -0.8200    0.0000 H       1  UNL1        0.0629
     31 H           3.4220    0.0969    0.0000 H       1  UNL1        0.0274
     32 H           3.1951   -0.7500    0.0000 H       1  UNL1        0.0274
     33 H           4.0420   -0.9769    0.0000 H       1  UNL1        0.0274
     34 H           4.2690    2.8700    0.0000 H       1  UNL1        0.0572
     35 H           7.1962   -4.0600    0.0000 H       1  UNL1        0.0691
     36 H           8.9490   -0.7854    0.0000 H       1  UNL1        0.0627
     37 H          10.3979   -1.6071    0.0000 H       1  UNL1        0.0689
     38 H           3.4860    4.0600    0.0000 H       1  UNL1        0.0274
     39 H           1.6900    3.0969    0.0000 H       1  UNL1        0.0274
     40 H           1.4631    2.2500    0.0000 H       1  UNL1        0.0274
     41 H           2.3100    2.0231    0.0000 H       1  UNL1        0.0274
     42 H           2.8660    4.6800    0.0000 H       1  UNL1        0.0274
     43 H           2.2460    4.0600    0.0000 H       1  UNL1        0.0274
     44 H           5.4641   -4.0600    0.0000 H       1  UNL1        0.2921
@<TRIPOS>BOND
     1     1    14   ar
     2     1    22   ar
     3     2    12    1
     4     2    44    1
     5     3    22    2
     6     4     5    1
     7     4     8    1
     8     4    23    1
     9     4    24    1
    10     5     9    2
    11     5    13    1
    12     6     7    1
    13     6     9    1
    14     6    25    1
    15     6    26    1
    16     7    10   ar
    17     7    12   ar
    18     8    15    1
    19     8    27    1
    20     8    28    1
    21     9    29    1
    22    10    11   ar
    23    10    30    1
    24    11    14   ar
    25    11    18   ar
    26    12    16   ar
    27    13    31    1
    28    13    32    1
    29    13    33    1
    30    14    16   ar
    31    15    17    2
    32    15    34    1
    33    16    35    1
    34    17    20    1
    35    17    21    1
    36    18    19   ar
    37    18    36    1
    38    19    22   ar
    39    19    37    1
    40    20    38    1
    41    20    42    1
    42    20    43    1
    43    21    39    1
    44    21    40    1
    45    21    41    1
