@<TRIPOS>MOLECULE
IMPHY003511
 41 42 0 0 0
SMALL
GASTEIGER

@<TRIPOS>ATOM
      1 O           7.7331   -0.1550    0.0000 O.3     1  UNL1       -0.3407
      2 O           6.0010    0.8450    0.0000 O.3     1  UNL1       -0.3461
      3 O           5.1350    2.3450    0.0000 O.3     1  UNL1       -0.3461
      4 O           6.0010   -2.1550    0.0000 O.3     1  UNL1       -0.3865
      5 O           7.7331   -3.1550    0.0000 O.3     1  UNL1       -0.3864
      6 O           9.4651   -2.1550    0.0000 O.3     1  UNL1       -0.3841
      7 O           4.2690   -0.1550    0.0000 O.3     1  UNL1       -0.3841
      8 O           9.4651   -0.1550    0.0000 O.3     1  UNL1       -0.3649
      9 O           2.5369    0.8450    0.0000 O.3     1  UNL1       -0.3864
     10 O           2.5369    2.8450    0.0000 O.3     1  UNL1       -0.3869
     11 C           6.8671   -0.6550    0.0000 C.3     1  UNL1        0.1134
     12 C           6.8671   -1.6550    0.0000 C.3     1  UNL1        0.1119
     13 C           7.7331   -2.1550    0.0000 C.3     1  UNL1        0.1141
     14 C           8.5991   -1.6550    0.0000 C.3     1  UNL1        0.1339
     15 C           4.2690    0.8450    0.0000 C.3     1  UNL1        0.1341
     16 C           6.0010   -0.1550    0.0000 C.3     1  UNL1        0.0796
     17 C           5.1350    1.3450    0.0000 C.3     1  UNL1        0.1876
     18 C           8.5991   -0.6550    0.0000 C.3     1  UNL1        0.1854
     19 C           3.4030    1.3450    0.0000 C.3     1  UNL1        0.1137
     20 C           3.4030    2.3450    0.0000 C.3     1  UNL1        0.1069
     21 C           4.2690    2.8450    0.0000 C.3     1  UNL1        0.0792
     22 H           6.8671   -0.0350    0.0000 H       1  UNL1        0.0647
     23 H           6.8671   -2.2750    0.0000 H       1  UNL1        0.0647
     24 H           8.2700   -2.4650    0.0000 H       1  UNL1        0.0648
     25 H           9.1360   -1.3450    0.0000 H       1  UNL1        0.0671
     26 H           4.8059    0.5350    0.0000 H       1  UNL1        0.0671
     27 H           5.3905   -0.0473    0.0000 H       1  UNL1        0.0587
     28 H           5.7890   -0.7376    0.0000 H       1  UNL1        0.0587
     29 H           5.6720    1.6550    0.0000 H       1  UNL1        0.0937
     30 H           8.5991    0.1950    0.0000 H       1  UNL1        0.0935
     31 H           3.4030    0.7250    0.0000 H       1  UNL1        0.0647
     32 H           3.4030    2.9650    0.0000 H       1  UNL1        0.0643
     33 H           4.6675    3.3200    0.0000 H       1  UNL1        0.0587
     34 H           3.8705    3.3200    0.0000 H       1  UNL1        0.0587
     35 H           5.4641   -1.8450    0.0000 H       1  UNL1        0.2100
     36 H           8.2700   -3.4650    0.0000 H       1  UNL1        0.2100
     37 H          10.0021   -1.8450    0.0000 H       1  UNL1        0.2101
     38 H           3.7320   -0.4650    0.0000 H       1  UNL1        0.2101
     39 H           9.4651    0.4650    0.0000 H       1  UNL1        0.2126
     40 H           2.0000    1.1550    0.0000 H       1  UNL1        0.2100
     41 H           2.5369    3.4650    0.0000 H       1  UNL1        0.2100
@<TRIPOS>BOND
     1     1    11    1
     2     1    18    1
     3     2    16    1
     4    17     2    1
     5     3    17    1
     6     3    21    1
     7    12     4    1
     8     4    35    1
     9    13     5    1
    10     5    36    1
    11    14     6    1
    12     6    37    1
    13    15     7    1
    14     7    38    1
    15     8    18    1
    16     8    39    1
    17    19     9    1
    18     9    40    1
    19    20    10    1
    20    10    41    1
    21    11    12    1
    22    11    16    1
    23    11    22    1
    24    12    13    1
    25    12    23    1
    26    13    14    1
    27    13    24    1
    28    14    18    1
    29    14    25    1
    30    15    17    1
    31    15    19    1
    32    15    26    1
    33    16    27    1
    34    16    28    1
    35    17    29    1
    36    18    30    1
    37    19    20    1
    38    19    31    1
    39    20    21    1
    40    20    32    1
    41    21    33    1
    42    21    34    1
