@<TRIPOS>MOLECULE
IMPHY013970
 35 37 0 0 0
SMALL
GASTEIGER

@<TRIPOS>ATOM
      1 C           3.6730    0.4301    0.0000 C.3     1  UNL1       -0.0285
      2 C           4.5092   -1.0182    0.0000 C.3     1  UNL1       -0.0310
      3 C           2.8368   -1.0182    0.0000 C.3     1  UNL1       -0.0398
      4 C           2.9819   -1.4533    0.0000 C.3     1  UNL1       -0.0398
      5 C           4.5092   -0.0527    0.0000 C.3     1  UNL1       -0.0419
      6 C           2.8368   -0.0527    0.0000 C.3     1  UNL1       -0.0445
      7 C           2.9819   -0.4080    0.0000 C.3     1  UNL1       -0.0445
      8 C           3.6730   -1.3210    0.0000 C.3     1  UNL1       -0.0447
      9 C           3.8876   -1.9301    0.0000 C.3     1  UNL1       -0.0447
     10 C           2.0000   -1.5010    0.0000 C.3     1  UNL1       -0.0473
     11 C           3.6730    1.4301    0.0000 C.3     1  UNL1       -0.0502
     12 C           5.2163   -1.7253    0.0000 C.3     1  UNL1       -0.0595
     13 C           4.5390    1.9301    0.0000 C.3     1  UNL1       -0.0648
     14 H           3.3444   -0.6622    0.0000 H       1  UNL1        0.0301
     15 H           2.8478   -2.0586    0.0000 H       1  UNL1        0.0301
     16 H           5.1198   -0.1603    0.0000 H       1  UNL1        0.0276
     17 H           4.7212    0.5299    0.0000 H       1  UNL1        0.0276
     18 H           2.6247    0.5299    0.0000 H       1  UNL1        0.0273
     19 H           2.2262   -0.1603    0.0000 H       1  UNL1        0.0273
     20 H           2.6383    0.1080    0.0000 H       1  UNL1        0.0273
     21 H           2.3885   -0.5875    0.0000 H       1  UNL1        0.0273
     22 H           3.3030   -1.8185    0.0000 H       1  UNL1        0.0273
     23 H           4.0430   -1.8185    0.0000 H       1  UNL1        0.0273
     24 H           3.5782   -2.4674    0.0000 H       1  UNL1        0.0273
     25 H           4.4127   -2.2597    0.0000 H       1  UNL1        0.0273
     26 H           1.5188   -1.1101    0.0000 H       1  UNL1        0.0271
     27 H           1.8068   -2.0901    0.0000 H       1  UNL1        0.0271
     28 H           3.4609    2.0127    0.0000 H       1  UNL1        0.0268
     29 H           3.0624    1.3224    0.0000 H       1  UNL1        0.0268
     30 H           4.7779   -2.1637    0.0000 H       1  UNL1        0.0235
     31 H           5.6547   -2.1637    0.0000 H       1  UNL1        0.0235
     32 H           5.6547   -1.2869    0.0000 H       1  UNL1        0.0235
     33 H           4.8490    1.3932    0.0000 H       1  UNL1        0.0230
     34 H           5.0760    2.2401    0.0000 H       1  UNL1        0.0230
     35 H           4.2290    2.4670    0.0000 H       1  UNL1        0.0230
@<TRIPOS>BOND
     1     1     5    1
     2     1     6    1
     3     1     7    1
     4     1    11    1
     5     2     5    1
     6     2     8    1
     7     2     9    1
     8     2    12    1
     9     3     6    1
    10     3     8    1
    11     3    10    1
    12     3    14    1
    13     4     7    1
    14     4     9    1
    15     4    10    1
    16     4    15    1
    17     5    16    1
    18     5    17    1
    19     6    18    1
    20     6    19    1
    21     7    20    1
    22     7    21    1
    23     8    22    1
    24     8    23    1
    25     9    24    1
    26     9    25    1
    27    10    26    1
    28    10    27    1
    29    11    13    1
    30    11    28    1
    31    11    29    1
    32    12    30    1
    33    12    31    1
    34    12    32    1
    35    13    33    1
    36    13    34    1
    37    13    35    1
