@<TRIPOS>MOLECULE
IMPHY004745
 54 57 0 0 0
SMALL
GASTEIGER

@<TRIPOS>ATOM
      1 O           5.1350   -1.0000    0.0000 O.3     1  UNL1       -0.3609
      2 O           2.5369   -0.5000    0.0000 O.3     1  UNL1       -0.3862
      3 O           2.5369   -2.5000    0.0000 O.3     1  UNL1       -0.3865
      4 O           4.2690   -3.5000    0.0000 O.3     1  UNL1       -0.3865
      5 O           6.0010   -3.5000    0.0000 O.3     1  UNL1       -0.3924
      6 O           6.0290    0.4653    0.0000 O.2     1  UNL1       -0.4540
      7 O           2.5369    0.5000    0.0000 O.3     1  UNL1       -0.5062
      8 O           4.2690    3.5000    0.0000 O.3     1  UNL1       -0.5058
      9 O           6.0174    3.5346    0.0000 O.2     1  UNL1       -0.2869
     10 O          10.3914   -1.0341    0.0000 O.3     1  UNL1       -0.4951
     11 C           3.4030   -1.0000    0.0000 C.3     1  UNL1        0.1139
     12 C           3.4030   -2.0000    0.0000 C.3     1  UNL1        0.1121
     13 C           4.2690   -0.5000    0.0000 C.3     1  UNL1        0.1193
     14 C           4.2690   -2.5000    0.0000 C.3     1  UNL1        0.1117
     15 C           5.1350   -2.0000    0.0000 C.3     1  UNL1        0.1108
     16 C           4.2690    0.5000    0.0000 C.ar    1  UNL1        0.0682
     17 C           6.0010   -2.5000    0.0000 C.3     1  UNL1        0.0729
     18 C           5.1350    1.0000    0.0000 C.ar    1  UNL1        0.1520
     19 C           3.4030    1.0000    0.0000 C.ar    1  UNL1        0.1296
     20 C           5.1350    2.0000    0.0000 C.ar    1  UNL1        0.1058
     21 C           3.4030    2.0000    0.0000 C.ar    1  UNL1        0.0226
     22 C           4.2690    2.5000    0.0000 C.ar    1  UNL1        0.1347
     23 C           6.0290    2.5347    0.0000 C.ar    1  UNL1        0.1966
     24 C           6.9350    0.9792    0.0000 C.ar    1  UNL1        0.1392
     25 C           6.9350    2.0208    0.0000 C.ar    1  UNL1        0.0288
     26 C           7.7991    0.4758    0.0000 C.ar    1  UNL1        0.0176
     27 C           7.7953   -0.5241    0.0000 C.ar    1  UNL1       -0.0476
     28 C           8.6671    0.9725    0.0000 C.ar    1  UNL1       -0.0476
     29 C           8.6594   -1.0275    0.0000 C.ar    1  UNL1       -0.0193
     30 C           9.5312    0.4692    0.0000 C.ar    1  UNL1       -0.0193
     31 C           9.5273   -0.5308    0.0000 C.ar    1  UNL1        0.1201
     32 C          11.2593   -0.5375    0.0000 C.3     1  UNL1        0.0788
     33 H           3.4030   -0.3800    0.0000 H       1  UNL1        0.0649
     34 H           3.4030   -2.6200    0.0000 H       1  UNL1        0.0647
     35 H           5.0051   -0.0750    0.0000 H       1  UNL1        0.0676
     36 H           4.8059   -2.8100    0.0000 H       1  UNL1        0.0647
     37 H           5.6720   -1.6900    0.0000 H       1  UNL1        0.0646
     38 H           6.6116   -2.6077    0.0000 H       1  UNL1        0.0584
     39 H           6.2131   -1.9174    0.0000 H       1  UNL1        0.0584
     40 H           2.0000   -0.8100    0.0000 H       1  UNL1        0.2100
     41 H           2.5369   -3.1200    0.0000 H       1  UNL1        0.2100
     42 H           3.7320   -3.8100    0.0000 H       1  UNL1        0.2100
     43 H           2.8660    2.3100    0.0000 H       1  UNL1        0.0691
     44 H           6.5380   -3.8100    0.0000 H       1  UNL1        0.2095
     45 H           7.4708    2.3329    0.0000 H       1  UNL1        0.0693
     46 H           2.0000    0.8100    0.0000 H       1  UNL1        0.2922
     47 H           3.7320    3.8100    0.0000 H       1  UNL1        0.2922
     48 H           7.2571   -0.8321    0.0000 H       1  UNL1        0.0626
     49 H           8.6694    1.5925    0.0000 H       1  UNL1        0.0626
     50 H           8.6570   -1.6475    0.0000 H       1  UNL1        0.0654
     51 H          10.0693    0.7771    0.0000 H       1  UNL1        0.0654
     52 H          11.5673   -1.0756    0.0000 H       1  UNL1        0.0660
     53 H          11.7975   -0.2296    0.0000 H       1  UNL1        0.0660
     54 H          10.9514    0.0006    0.0000 H       1  UNL1        0.0660
@<TRIPOS>BOND
     1     1    13    1
     2     1    15    1
     3     2    11    1
     4     2    40    1
     5    12     3    1
     6     3    41    1
     7    14     4    1
     8     4    42    1
     9     5    17    1
    10     5    44    1
    11     6    18   ar
    12     6    24   ar
    13     7    19    1
    14     7    46    1
    15     8    22    1
    16     8    47    1
    17     9    23    2
    18    10    31    1
    19    10    32    1
    20    11    12    1
    21    11    13    1
    22    11    33    1
    23    12    14    1
    24    12    34    1
    25    13    16    1
    26    13    35    1
    27    14    15    1
    28    14    36    1
    29    15    17    1
    30    15    37    1
    31    16    18   ar
    32    16    19   ar
    33    17    38    1
    34    17    39    1
    35    18    20   ar
    36    19    21   ar
    37    20    22   ar
    38    20    23   ar
    39    21    22   ar
    40    21    43    1
    41    23    25   ar
    42    24    25   ar
    43    24    26    1
    44    25    45    1
    45    26    27   ar
    46    26    28   ar
    47    27    29   ar
    48    27    48    1
    49    28    30   ar
    50    28    49    1
    51    29    31   ar
    52    29    50    1
    53    30    31   ar
    54    30    51    1
    55    32    52    1
    56    32    53    1
    57    32    54    1
