@<TRIPOS>MOLECULE
IMPHY006768
 76 79 0 0 0
SMALL
GASTEIGER

@<TRIPOS>ATOM
      1 O           7.3671    3.2342    0.0000 O.3     1  UNL1       -0.4577
      2 O          10.3062    1.1435    0.0000 O.3     1  UNL1       -0.4643
      3 O          12.1736    4.1342    0.0000 O.3     1  UNL1       -0.3947
      4 O           6.8671   -1.6318    0.0000 O.3     1  UNL1       -0.3061
      5 O           6.0010   -0.1318    0.0000 O.2     1  UNL1       -0.4666
      6 O           5.9011    2.6270    0.0000 O.2     1  UNL1       -0.2452
      7 O           5.1350   -1.6318    0.0000 O.3     1  UNL1       -0.3404
      8 O          10.0243    0.1552    0.0000 O.2     1  UNL1       -0.2508
      9 O           6.8671   -3.6318    0.0000 O.3     1  UNL1       -0.3841
     10 O           5.1350   -4.6318    0.0000 O.3     1  UNL1       -0.3864
     11 O           3.4030   -3.6318    0.0000 O.3     1  UNL1       -0.3865
     12 O           2.5369   -2.1318    0.0000 O.3     1  UNL1       -0.3924
     13 C           9.6446    3.3572    0.0000 C.3     1  UNL1       -0.0268
     14 C           9.5991    2.3682    0.0000 C.3     1  UNL1        0.0025
     15 C           9.0991    3.2342    0.0000 C.3     1  UNL1       -0.0005
     16 C           8.6882    3.6135    0.0000 C.3     1  UNL1       -0.0119
     17 C           8.2331    2.7342    0.0000 C.3     1  UNL1        0.1066
     18 C          10.4517    3.9476    0.0000 C.3     1  UNL1       -0.0173
     19 C          10.5650    2.1094    0.0000 C.3     1  UNL1        0.0959
     20 C           9.3579    4.2002    0.0000 C.3     1  UNL1       -0.0587
     21 C          11.3665    3.5438    0.0000 C.3     1  UNL1        0.0470
     22 C          10.3439    4.9418    0.0000 C.3     1  UNL1       -0.0601
     23 C           6.8671    2.3682    0.0000 C.2     1  UNL1        0.3389
     24 C           7.7331    0.8682    0.0000 C.3     1  UNL1        0.0307
     25 C           6.8671    1.3682    0.0000 C.2     1  UNL1        0.0785
     26 C           9.3403    0.8846    0.0000 C.2     1  UNL1        0.3080
     27 C           8.5991    1.3682    0.0000 C.3     1  UNL1        0.0559
     28 C           7.7331   -0.1318    0.0000 C.2     1  UNL1        0.0019
     29 C           6.8671   -0.6318    0.0000 C.3     1  UNL1        0.2266
     30 C           6.0010    0.8682    0.0000 C.2     1  UNL1        0.0988
     31 C           6.0010   -2.1318    0.0000 C.3     1  UNL1        0.1921
     32 C           6.0010   -3.1318    0.0000 C.3     1  UNL1        0.1343
     33 C           5.1350   -3.6318    0.0000 C.3     1  UNL1        0.1141
     34 C           4.2690   -3.1318    0.0000 C.3     1  UNL1        0.1119
     35 C           4.2690   -2.1318    0.0000 C.3     1  UNL1        0.1130
     36 C           8.5991   -0.6318    0.0000 C.2     1  UNL1       -0.0814
     37 C           3.4030   -1.6318    0.0000 C.3     1  UNL1        0.0730
     38 C           8.5991   -1.6318    0.0000 C.3     1  UNL1       -0.0464
     39 H           9.5306    3.9666    0.0000 H       1  UNL1        0.0309
     40 H           9.2217    1.8763    0.0000 H       1  UNL1        0.0340
     41 H           9.7138    3.3152    0.0000 H       1  UNL1        0.0338
     42 H           8.8913    4.1992    0.0000 H       1  UNL1        0.0304
     43 H           8.1186    3.8582    0.0000 H       1  UNL1        0.0304
     44 H           8.2331    2.1142    0.0000 H       1  UNL1        0.0737
     45 H          10.9521    4.3136    0.0000 H       1  UNL1        0.0323
     46 H          11.1639    1.9489    0.0000 H       1  UNL1        0.0700
     47 H          10.7255    2.7083    0.0000 H       1  UNL1        0.0700
     48 H           9.9568    4.0397    0.0000 H       1  UNL1        0.0234
     49 H           9.5184    4.7990    0.0000 H       1  UNL1        0.0234
     50 H           8.7591    4.3606    0.0000 H       1  UNL1        0.0234
     51 H          11.0215    3.0287    0.0000 H       1  UNL1        0.0560
     52 H          11.8139    3.1146    0.0000 H       1  UNL1        0.0560
     53 H          10.9603    5.0086    0.0000 H       1  UNL1        0.0233
     54 H          10.2771    5.5582    0.0000 H       1  UNL1        0.0233
     55 H           9.7275    4.8750    0.0000 H       1  UNL1        0.0233
     56 H           8.2700    0.5582    0.0000 H       1  UNL1        0.0404
     57 H           9.0146    1.8284    0.0000 H       1  UNL1        0.0387
     58 H           8.2093    1.8503    0.0000 H       1  UNL1        0.0387
     59 H          12.7408    3.8839    0.0000 H       1  UNL1        0.2094
     60 H           7.4040   -0.9418    0.0000 H       1  UNL1        0.1109
     61 H           6.0010   -1.5118    0.0000 H       1  UNL1        0.0939
     62 H           5.4641    1.1782    0.0000 H       1  UNL1        0.1030
     63 H           6.0010   -3.7518    0.0000 H       1  UNL1        0.0671
     64 H           4.5981   -3.9418    0.0000 H       1  UNL1        0.0648
     65 H           3.7320   -2.8218    0.0000 H       1  UNL1        0.0647
     66 H           4.2690   -1.5118    0.0000 H       1  UNL1        0.0647
     67 H           9.1360   -0.9418    0.0000 H       1  UNL1        0.0571
     68 H           3.8015   -1.1568    0.0000 H       1  UNL1        0.0584
     69 H           3.0044   -1.1568    0.0000 H       1  UNL1        0.0584
     70 H           6.8671   -4.2518    0.0000 H       1  UNL1        0.2101
     71 H           4.5981   -4.9418    0.0000 H       1  UNL1        0.2100
     72 H           3.4030   -4.2518    0.0000 H       1  UNL1        0.2100
     73 H           7.9791   -1.6318    0.0000 H       1  UNL1        0.0272
     74 H           8.5991   -2.2518    0.0000 H       1  UNL1        0.0272
     75 H           9.2191   -1.6318    0.0000 H       1  UNL1        0.0272
     76 H           2.0000   -1.8218    0.0000 H       1  UNL1        0.2095
@<TRIPOS>BOND
     1     1    17    1
     2     1    23    1
     3     2    19    1
     4     2    26    1
     5     3    21    1
     6     3    59    1
     7     4    29    1
     8    31     4    1
     9     5    29    1
    10     5    30    1
    11     6    23    2
    12     7    31    1
    13     7    35    1
    14     8    26    2
    15    32     9    1
    16     9    70    1
    17    33    10    1
    18    10    71    1
    19    34    11    1
    20    11    72    1
    21    12    37    1
    22    12    76    1
    23    13    14    1
    24    13    16    1
    25    13    18    1
    26    13    39    1
    27    14    15    1
    28    14    19    1
    29    14    40    1
    30    15    17    1
    31    15    20    1
    32    15    41    1
    33    16    17    1
    34    16    42    1
    35    16    43    1
    36    17    44    1
    37    18    21    1
    38    18    22    1
    39    18    45    1
    40    19    46    1
    41    19    47    1
    42    20    48    1
    43    20    49    1
    44    20    50    1
    45    21    51    1
    46    21    52    1
    47    22    53    1
    48    22    54    1
    49    22    55    1
    50    23    25    1
    51    24    25    1
    52    24    27    1
    53    24    28    1
    54    24    56    1
    55    25    30    2
    56    26    27    1
    57    27    57    1
    58    27    58    1
    59    28    29    1
    60    28    36    2
    61    29    60    1
    62    30    62    1
    63    31    32    1
    64    31    61    1
    65    32    33    1
    66    32    63    1
    67    33    34    1
    68    33    64    1
    69    34    35    1
    70    34    65    1
    71    35    37    1
    72    35    66    1
    73    36    38    1
    74    36    67    1
    75    37    68    1
    76    37    69    1
    77    38    73    1
    78    38    74    1
    79    38    75    1
