@<TRIPOS>MOLECULE
IMPHY004340
 34 37 0 0 0
SMALL
GASTEIGER

@<TRIPOS>ATOM
      1 O           5.5022   -1.0209    0.0000 O.2     1  UNL1       -0.4544
      2 O           9.0744   -0.7910    0.0000 O.2     1  UNL1       -0.4627
      3 O           7.2622    2.0137    0.0000 O.3     1  UNL1       -0.4936
      4 O           5.5138    2.0483    0.0000 O.2     1  UNL1       -0.2869
      5 C           6.3961    0.5137    0.0000 C.ar    1  UNL1        0.1063
      6 C           8.1282    0.5137    0.0000 C.ar    1  UNL1        0.0627
      7 C           6.3961   -0.4863    0.0000 C.ar    1  UNL1        0.1463
      8 C           7.2622    1.0137    0.0000 C.ar    1  UNL1        0.1452
      9 C           8.1282   -0.4863    0.0000 C.ar    1  UNL1        0.1418
     10 C           7.2622   -0.9863    0.0000 C.ar    1  UNL1        0.0245
     11 C           5.5022    1.0484    0.0000 C.ar    1  UNL1        0.1966
     12 C           4.5961   -0.5071    0.0000 C.ar    1  UNL1        0.1392
     13 C           9.0744    0.8185    0.0000 C.ar    1  UNL1       -0.0126
     14 C           4.5961    0.5346    0.0000 C.ar    1  UNL1        0.0288
     15 C           3.7320   -1.0104    0.0000 C.ar    1  UNL1        0.0174
     16 C           9.6580    0.0137    0.0000 C.ar    1  UNL1        0.0933
     17 C           2.8641   -0.5138    0.0000 C.ar    1  UNL1       -0.0511
     18 C           3.7359   -2.0104    0.0000 C.ar    1  UNL1       -0.0511
     19 C           8.1282    2.5137    0.0000 C.3     1  UNL1        0.0788
     20 C           2.0000   -1.0171    0.0000 C.ar    1  UNL1       -0.0611
     21 C           2.8718   -2.5137    0.0000 C.ar    1  UNL1       -0.0611
     22 C           2.0038   -2.0171    0.0000 C.ar    1  UNL1       -0.0617
     23 H           7.2622   -1.6063    0.0000 H       1  UNL1        0.0692
     24 H           9.2670    1.4078    0.0000 H       1  UNL1        0.0656
     25 H           4.0604    0.8466    0.0000 H       1  UNL1        0.0693
     26 H          10.2780    0.0137    0.0000 H       1  UNL1        0.1030
     27 H           2.8617    0.1062    0.0000 H       1  UNL1        0.0625
     28 H           4.2740   -2.3183    0.0000 H       1  UNL1        0.0625
     29 H           8.4382    1.9768    0.0000 H       1  UNL1        0.0660
     30 H           8.6651    2.8237    0.0000 H       1  UNL1        0.0660
     31 H           7.8182    3.0507    0.0000 H       1  UNL1        0.0660
     32 H           1.4619   -0.7092    0.0000 H       1  UNL1        0.0618
     33 H           2.8742   -3.1337    0.0000 H       1  UNL1        0.0618
     34 H           1.4681   -2.3292    0.0000 H       1  UNL1        0.0618
@<TRIPOS>BOND
     1     1     7   ar
     2     1    12   ar
     3     2     9   ar
     4     2    16   ar
     5     3     8    1
     6     3    19    1
     7     4    11    2
     8     5     7   ar
     9     5     8   ar
    10     5    11   ar
    11     6     8   ar
    12     6     9   ar
    13     6    13   ar
    14     7    10   ar
    15     9    10   ar
    16    10    23    1
    17    11    14   ar
    18    12    14   ar
    19    12    15    1
    20    13    16   ar
    21    13    24    1
    22    14    25    1
    23    15    17   ar
    24    15    18   ar
    25    16    26    1
    26    17    20   ar
    27    17    27    1
    28    18    21   ar
    29    18    28    1
    30    19    29    1
    31    19    30    1
    32    19    31    1
    33    20    22   ar
    34    20    32    1
    35    21    22   ar
    36    21    33    1
    37    22    34    1
