@<TRIPOS>MOLECULE
IMPHY008226
 57 58 0 0 0
SMALL
GASTEIGER

@<TRIPOS>ATOM
      1 O           6.0010    2.4050    0.0000 O.3     1  UNL1       -0.5064
      2 O           2.5369    2.4050    0.0000 O.3     1  UNL1       -0.5064
      3 O           3.4030   -5.0950    0.0000 O.3     1  UNL1       -0.5065
      4 C           4.2690   -0.5950    0.0000 C.3     1  UNL1       -0.0235
      5 C           3.4030   -1.0950    0.0000 C.3     1  UNL1       -0.0237
      6 C           4.2690    0.4050    0.0000 C.ar    1  UNL1       -0.0401
      7 C           3.4030   -2.0950    0.0000 C.ar    1  UNL1       -0.0466
      8 C           4.2690   -3.5950    0.0000 C.ar    1  UNL1       -0.0020
      9 C           4.2690    2.4050    0.0000 C.ar    1  UNL1        0.0391
     10 C           4.2690   -2.5950    0.0000 C.ar    1  UNL1       -0.0516
     11 C           5.1350    0.9050    0.0000 C.ar    1  UNL1       -0.0165
     12 C           3.4030    0.9050    0.0000 C.ar    1  UNL1       -0.0165
     13 C           5.1350    1.9050    0.0000 C.ar    1  UNL1        0.1240
     14 C           3.4030    1.9050    0.0000 C.ar    1  UNL1        0.1240
     15 C           2.5369   -2.5950    0.0000 C.ar    1  UNL1       -0.0551
     16 C           4.2690    3.4050    0.0000 C.3     1  UNL1       -0.0023
     17 C           5.1350   -4.0950    0.0000 C.3     1  UNL1       -0.0058
     18 C           3.4030   -4.0950    0.0000 C.ar    1  UNL1        0.1203
     19 C           2.5369   -3.5950    0.0000 C.ar    1  UNL1       -0.0196
     20 C           5.1350    3.9050    0.0000 C.2     1  UNL1       -0.0807
     21 C           6.0010   -3.5950    0.0000 C.2     1  UNL1       -0.0809
     22 C           5.1350    4.9050    0.0000 C.2     1  UNL1       -0.0793
     23 C           6.8671   -4.0950    0.0000 C.2     1  UNL1       -0.0793
     24 C           6.0010    5.4050    0.0000 C.3     1  UNL1       -0.0440
     25 C           4.2690    5.4050    0.0000 C.3     1  UNL1       -0.0440
     26 C           7.7331   -3.5950    0.0000 C.3     1  UNL1       -0.0440
     27 C           6.8671   -5.0950    0.0000 C.3     1  UNL1       -0.0440
     28 H           4.4810   -1.1776    0.0000 H       1  UNL1        0.0316
     29 H           4.8796   -0.4873    0.0000 H       1  UNL1        0.0316
     30 H           3.1909   -0.5124    0.0000 H       1  UNL1        0.0316
     31 H           2.7924   -1.2027    0.0000 H       1  UNL1        0.0316
     32 H           4.8059   -2.2850    0.0000 H       1  UNL1        0.0624
     33 H           5.6720    0.5950    0.0000 H       1  UNL1        0.0657
     34 H           2.8660    0.5950    0.0000 H       1  UNL1        0.0657
     35 H           2.0000   -2.2850    0.0000 H       1  UNL1        0.0621
     36 H           4.0569    3.9876    0.0000 H       1  UNL1        0.0358
     37 H           3.6584    3.2973    0.0000 H       1  UNL1        0.0358
     38 H           4.7365   -4.5700    0.0000 H       1  UNL1        0.0357
     39 H           5.5335   -4.5700    0.0000 H       1  UNL1        0.0357
     40 H           2.0000   -3.9050    0.0000 H       1  UNL1        0.0654
     41 H           5.6720    3.5950    0.0000 H       1  UNL1        0.0575
     42 H           6.0010   -2.9750    0.0000 H       1  UNL1        0.0575
     43 H           6.5380    2.0950    0.0000 H       1  UNL1        0.2921
     44 H           2.0000    2.0950    0.0000 H       1  UNL1        0.2921
     45 H           2.8660   -5.4050    0.0000 H       1  UNL1        0.2921
     46 H           4.5790    5.9419    0.0000 H       1  UNL1        0.0274
     47 H           3.7320    5.7150    0.0000 H       1  UNL1        0.0274
     48 H           3.9590    4.8681    0.0000 H       1  UNL1        0.0274
     49 H           6.3110    4.8681    0.0000 H       1  UNL1        0.0274
     50 H           6.5380    5.7150    0.0000 H       1  UNL1        0.0274
     51 H           5.6910    5.9419    0.0000 H       1  UNL1        0.0274
     52 H           8.0431   -4.1319    0.0000 H       1  UNL1        0.0274
     53 H           8.2700   -3.2850    0.0000 H       1  UNL1        0.0274
     54 H           7.4231   -3.0581    0.0000 H       1  UNL1        0.0274
     55 H           6.2471   -5.0950    0.0000 H       1  UNL1        0.0274
     56 H           6.8671   -5.7150    0.0000 H       1  UNL1        0.0274
     57 H           7.4871   -5.0950    0.0000 H       1  UNL1        0.0274
@<TRIPOS>BOND
     1     1    13    1
     2     1    43    1
     3     2    14    1
     4     2    44    1
     5     3    18    1
     6     3    45    1
     7     4     5    1
     8     4     6    1
     9     4    28    1
    10     4    29    1
    11     5     7    1
    12     5    30    1
    13     5    31    1
    14     6    11   ar
    15     6    12   ar
    16     7    10   ar
    17     7    15   ar
    18     8    10   ar
    19     8    17    1
    20     8    18   ar
    21     9    13   ar
    22     9    14   ar
    23     9    16    1
    24    10    32    1
    25    11    13   ar
    26    11    33    1
    27    12    14   ar
    28    12    34    1
    29    15    19   ar
    30    15    35    1
    31    16    20    1
    32    16    36    1
    33    16    37    1
    34    17    21    1
    35    17    38    1
    36    17    39    1
    37    18    19   ar
    38    19    40    1
    39    20    22    2
    40    20    41    1
    41    21    23    2
    42    21    42    1
    43    22    24    1
    44    22    25    1
    45    23    26    1
    46    23    27    1
    47    24    49    1
    48    24    50    1
    49    24    51    1
    50    25    46    1
    51    25    47    1
    52    25    48    1
    53    26    52    1
    54    26    53    1
    55    26    54    1
    56    27    55    1
    57    27    56    1
    58    27    57    1
