@<TRIPOS>MOLECULE
IMPHY010129
 56 57 0 0 0
SMALL
GASTEIGER

@<TRIPOS>ATOM
      1 O           4.5981    0.5000    0.0000 O.3     1  UNL1       -0.4792
      2 O           4.5981    2.5000    0.0000 O.3     1  UNL1       -0.3835
      3 O           2.8660   -0.5000    0.0000 O.3     1  UNL1       -0.4913
      4 O           6.3301   -0.5000    0.0000 O.3     1  UNL1       -0.4913
      5 O           8.9282    2.0000    0.0000 O.3     1  UNL1       -0.4914
      6 O           8.9282    4.0000    0.0000 O.3     1  UNL1       -0.4915
      7 C           5.4641    1.0000    0.0000 C.3     1  UNL1        0.1276
      8 C           5.4641    2.0000    0.0000 C.3     1  UNL1        0.1167
      9 C           6.3301    2.5000    0.0000 C.ar    1  UNL1       -0.0120
     10 C           6.3301    0.5000    0.0000 C.3     1  UNL1       -0.0250
     11 C           4.5981   -0.5000    0.0000 C.ar    1  UNL1        0.2041
     12 C           7.1962    2.0000    0.0000 C.ar    1  UNL1       -0.0106
     13 C           6.3301    3.5000    0.0000 C.ar    1  UNL1       -0.0523
     14 C           3.7320   -1.0000    0.0000 C.ar    1  UNL1        0.1655
     15 C           5.4641   -1.0000    0.0000 C.ar    1  UNL1        0.1655
     16 C           4.5981   -2.5000    0.0000 C.ar    1  UNL1       -0.0365
     17 C           8.0622    2.5000    0.0000 C.ar    1  UNL1        0.1618
     18 C           7.1962    4.0000    0.0000 C.ar    1  UNL1       -0.0160
     19 C           3.7320   -2.0000    0.0000 C.ar    1  UNL1       -0.0126
     20 C           5.4641   -2.0000    0.0000 C.ar    1  UNL1       -0.0126
     21 C           8.0622    3.5000    0.0000 C.ar    1  UNL1        0.1615
     22 C           4.5981   -3.5000    0.0000 C.3     1  UNL1       -0.0095
     23 C           3.7320   -4.0000    0.0000 C.2     1  UNL1       -0.0868
     24 C           2.0000   -1.0000    0.0000 C.3     1  UNL1        0.0790
     25 C           7.1962   -1.0000    0.0000 C.3     1  UNL1        0.0790
     26 C           9.7942    2.5000    0.0000 C.3     1  UNL1        0.0790
     27 C           8.9282    5.0000    0.0000 C.3     1  UNL1        0.0790
     28 C           3.7320   -5.0000    0.0000 C.2     1  UNL1       -0.1023
     29 H           5.4641    0.3800    0.0000 H       1  UNL1        0.0760
     30 H           5.4641    2.6200    0.0000 H       1  UNL1        0.0681
     31 H           6.0201   -0.0369    0.0000 H       1  UNL1        0.0266
     32 H           6.8671    0.1900    0.0000 H       1  UNL1        0.0266
     33 H           6.6401    1.0369    0.0000 H       1  UNL1        0.0266
     34 H           7.1962    1.3800    0.0000 H       1  UNL1        0.0659
     35 H           5.7932    3.8100    0.0000 H       1  UNL1        0.0622
     36 H           4.5981    3.1200    0.0000 H       1  UNL1        0.2104
     37 H           7.1962    4.6200    0.0000 H       1  UNL1        0.0655
     38 H           3.1951   -2.3100    0.0000 H       1  UNL1        0.0658
     39 H           6.0010   -2.3100    0.0000 H       1  UNL1        0.0658
     40 H           4.8101   -4.0826    0.0000 H       1  UNL1        0.0355
     41 H           5.2087   -3.3923    0.0000 H       1  UNL1        0.0355
     42 H           3.1951   -3.6900    0.0000 H       1  UNL1        0.0570
     43 H           1.6900   -0.4631    0.0000 H       1  UNL1        0.0660
     44 H           1.4631   -1.3100    0.0000 H       1  UNL1        0.0660
     45 H           2.3100   -1.5369    0.0000 H       1  UNL1        0.0660
     46 H           6.8862   -1.5369    0.0000 H       1  UNL1        0.0660
     47 H           7.7331   -1.3100    0.0000 H       1  UNL1        0.0660
     48 H           7.5062   -0.4631    0.0000 H       1  UNL1        0.0660
     49 H          10.1042    1.9631    0.0000 H       1  UNL1        0.0660
     50 H          10.3312    2.8100    0.0000 H       1  UNL1        0.0660
     51 H           9.4842    3.0369    0.0000 H       1  UNL1        0.0660
     52 H           9.5482    5.0000    0.0000 H       1  UNL1        0.0660
     53 H           8.9282    5.6200    0.0000 H       1  UNL1        0.0660
     54 H           8.3082    5.0000    0.0000 H       1  UNL1        0.0660
     55 H           3.1951   -5.3100    0.0000 H       1  UNL1        0.0532
     56 H           4.2690   -5.3100    0.0000 H       1  UNL1        0.0532
@<TRIPOS>BOND
     1     1     7    1
     2     1    11    1
     3     2     8    1
     4     2    36    1
     5     3    14    1
     6     3    24    1
     7     4    15    1
     8     4    25    1
     9     5    17    1
    10     5    26    1
    11     6    21    1
    12     6    27    1
    13     7     8    1
    14     7    10    1
    15     7    29    1
    16     8     9    1
    17     8    30    1
    18     9    12   ar
    19     9    13   ar
    20    10    31    1
    21    10    32    1
    22    10    33    1
    23    11    14   ar
    24    11    15   ar
    25    12    17   ar
    26    12    34    1
    27    13    18   ar
    28    13    35    1
    29    14    19   ar
    30    15    20   ar
    31    16    19   ar
    32    16    20   ar
    33    16    22    1
    34    17    21   ar
    35    18    21   ar
    36    18    37    1
    37    19    38    1
    38    20    39    1
    39    22    23    1
    40    22    40    1
    41    22    41    1
    42    23    28    2
    43    23    42    1
    44    24    43    1
    45    24    44    1
    46    24    45    1
    47    25    46    1
    48    25    47    1
    49    25    48    1
    50    26    49    1
    51    26    50    1
    52    26    51    1
    53    27    52    1
    54    27    53    1
    55    27    54    1
    56    28    55    1
    57    28    56    1
