@<TRIPOS>MOLECULE
IMPHY006274
 77 81 0 0 0
SMALL
GASTEIGER

@<TRIPOS>ATOM
      1 O           5.1350   -0.5357    0.0000 O.3     1  UNL1       -0.3313
      2 O          10.3312   -2.5357    0.0000 O.3     1  UNL1       -0.3313
      3 O           6.8671   -0.5357    0.0000 O.3     1  UNL1       -0.4532
      4 O           5.1350   -3.5357    0.0000 O.3     1  UNL1       -0.3864
      5 O           3.4030   -2.5357    0.0000 O.3     1  UNL1       -0.3865
      6 O          11.1972   -1.0357    0.0000 O.3     1  UNL1       -0.4572
      7 O          12.9292   -4.0357    0.0000 O.3     1  UNL1       -0.3864
      8 O          11.1972   -5.0357    0.0000 O.3     1  UNL1       -0.3865
      9 O           6.8671   -2.5357    0.0000 O.3     1  UNL1       -0.3829
     10 O          12.9292   -2.0357    0.0000 O.3     1  UNL1       -0.3829
     11 O           2.5369   -1.0357    0.0000 O.3     1  UNL1       -0.3924
     12 O           9.4651   -5.0357    0.0000 O.3     1  UNL1       -0.3924
     13 O           7.7331    1.9643    0.0000 O.2     1  UNL1       -0.4507
     14 O          11.1972    0.9643    0.0000 O.3     1  UNL1       -0.4914
     15 O           5.1350    0.4643    0.0000 O.2     1  UNL1       -0.2830
     16 O           4.2308    1.9612    0.0000 O.3     1  UNL1       -0.5058
     17 O           5.9889    5.0336    0.0000 O.3     1  UNL1       -0.5065
     18 C           5.1350   -2.5357    0.0000 C.3     1  UNL1        0.1152
     19 C           4.2690   -2.0357    0.0000 C.3     1  UNL1        0.1120
     20 C          12.0632   -3.5357    0.0000 C.3     1  UNL1        0.1152
     21 C          11.1972   -4.0357    0.0000 C.3     1  UNL1        0.1120
     22 C           6.0010   -2.0357    0.0000 C.3     1  UNL1        0.1454
     23 C           4.2690   -1.0357    0.0000 C.3     1  UNL1        0.1140
     24 C          12.0632   -2.5357    0.0000 C.3     1  UNL1        0.1454
     25 C          10.3312   -3.5357    0.0000 C.3     1  UNL1        0.1140
     26 C           6.0010   -1.0357    0.0000 C.3     1  UNL1        0.2311
     27 C          11.1972   -2.0357    0.0000 C.3     1  UNL1        0.2310
     28 C           3.4030   -0.5357    0.0000 C.3     1  UNL1        0.0731
     29 C           9.4651   -4.0357    0.0000 C.3     1  UNL1        0.0731
     30 C           6.8671    0.4643    0.0000 C.ar    1  UNL1        0.2138
     31 C          10.3312   -0.5357    0.0000 C.ar    1  UNL1        0.1654
     32 C           7.7331    0.9643    0.0000 C.ar    1  UNL1        0.1810
     33 C           8.5991    0.4643    0.0000 C.ar    1  UNL1        0.0247
     34 C          10.3312    0.4643    0.0000 C.ar    1  UNL1        0.1623
     35 C           6.0010    0.9643    0.0000 C.ar    1  UNL1        0.2382
     36 C           9.4651   -1.0357    0.0000 C.ar    1  UNL1       -0.0155
     37 C           9.4651    0.9643    0.0000 C.ar    1  UNL1       -0.0055
     38 C           8.5991   -0.5357    0.0000 C.ar    1  UNL1       -0.0473
     39 C           6.0010    1.9643    0.0000 C.ar    1  UNL1        0.1092
     40 C           6.8671    2.4643    0.0000 C.ar    1  UNL1        0.1465
     41 C           5.0910    2.4712    0.0000 C.ar    1  UNL1        0.1348
     42 C           6.8831    3.5058    0.0000 C.ar    1  UNL1        0.0231
     43 C           5.0830    3.5128    0.0000 C.ar    1  UNL1        0.0223
     44 C           5.9851    4.0336    0.0000 C.ar    1  UNL1        0.1239
     45 C          11.1972    1.9643    0.0000 C.3     1  UNL1        0.0790
     46 H           5.6720   -2.8457    0.0000 H       1  UNL1        0.0648
     47 H           4.2690   -2.6557    0.0000 H       1  UNL1        0.0647
     48 H          12.0632   -4.1557    0.0000 H       1  UNL1        0.0648
     49 H          10.6603   -4.3457    0.0000 H       1  UNL1        0.0647
     50 H           6.5380   -1.7257    0.0000 H       1  UNL1        0.0683
     51 H           4.2690   -0.4157    0.0000 H       1  UNL1        0.0647
     52 H          12.0632   -1.9157    0.0000 H       1  UNL1        0.0683
     53 H           9.7942   -3.2257    0.0000 H       1  UNL1        0.0647
     54 H           6.0010   -0.4157    0.0000 H       1  UNL1        0.1084
     55 H          10.6603   -1.7257    0.0000 H       1  UNL1        0.1084
     56 H           3.8015   -0.0607    0.0000 H       1  UNL1        0.0584
     57 H           3.0044   -0.0607    0.0000 H       1  UNL1        0.0584
     58 H           9.2531   -3.4530    0.0000 H       1  UNL1        0.0584
     59 H           8.8546   -4.1433    0.0000 H       1  UNL1        0.0584
     60 H           4.5981   -3.8457    0.0000 H       1  UNL1        0.2100
     61 H           3.4030   -3.1557    0.0000 H       1  UNL1        0.2100
     62 H          12.9292   -4.6557    0.0000 H       1  UNL1        0.2100
     63 H          11.7341   -5.3457    0.0000 H       1  UNL1        0.2100
     64 H           6.8671   -3.1557    0.0000 H       1  UNL1        0.2102
     65 H          13.4662   -2.3457    0.0000 H       1  UNL1        0.2102
     66 H           2.0000   -0.7257    0.0000 H       1  UNL1        0.2095
     67 H           8.9282   -5.3457    0.0000 H       1  UNL1        0.2095
     68 H           9.4651   -1.6557    0.0000 H       1  UNL1        0.0655
     69 H           9.4651    1.5843    0.0000 H       1  UNL1        0.0662
     70 H           8.0622   -0.8457    0.0000 H       1  UNL1        0.0626
     71 H           7.4236    3.8096    0.0000 H       1  UNL1        0.0691
     72 H           4.5449    3.8207    0.0000 H       1  UNL1        0.0691
     73 H          11.8172    1.9643    0.0000 H       1  UNL1        0.0660
     74 H          11.1972    2.5843    0.0000 H       1  UNL1        0.0660
     75 H          10.5772    1.9643    0.0000 H       1  UNL1        0.0660
     76 H           3.6904    2.2650    0.0000 H       1  UNL1        0.2922
     77 H           5.4532    5.3457    0.0000 H       1  UNL1        0.2921
@<TRIPOS>BOND
     1     1    23    1
     2     1    26    1
     3     2    25    1
     4     2    27    1
     5     3    26    1
     6     3    30    1
     7     4    18    1
     8     4    60    1
     9     5    19    1
    10     5    61    1
    11     6    27    1
    12     6    31    1
    13     7    20    1
    14     7    62    1
    15     8    21    1
    16     8    63    1
    17     9    22    1
    18     9    64    1
    19    10    24    1
    20    10    65    1
    21    11    28    1
    22    11    66    1
    23    12    29    1
    24    12    67    1
    25    13    32   ar
    26    13    40   ar
    27    14    34    1
    28    14    45    1
    29    15    35    2
    30    16    41    1
    31    16    76    1
    32    17    44    1
    33    17    77    1
    34    18    19    1
    35    18    22    1
    36    18    46    1
    37    19    23    1
    38    19    47    1
    39    20    21    1
    40    20    24    1
    41    20    48    1
    42    21    25    1
    43    21    49    1
    44    22    26    1
    45    22    50    1
    46    23    28    1
    47    23    51    1
    48    24    27    1
    49    24    52    1
    50    25    29    1
    51    25    53    1
    52    26    54    1
    53    27    55    1
    54    28    56    1
    55    28    57    1
    56    29    58    1
    57    29    59    1
    58    30    32   ar
    59    30    35   ar
    60    31    34   ar
    61    31    36   ar
    62    32    33    1
    63    33    37   ar
    64    33    38   ar
    65    34    37   ar
    66    35    39   ar
    67    36    38   ar
    68    36    68    1
    69    37    69    1
    70    38    70    1
    71    39    40   ar
    72    39    41   ar
    73    40    42   ar
    74    41    43   ar
    75    42    44   ar
    76    42    71    1
    77    43    44   ar
    78    43    72    1
    79    45    73    1
    80    45    74    1
    81    45    75    1
