@<TRIPOS>MOLECULE
IMPHY001270
 38 42 0 0 0
SMALL
GASTEIGER

@<TRIPOS>ATOM
      1 O           5.4390    0.0383    0.0000 O.3     1  UNL1       -0.3893
      2 O           8.9116    1.4799    0.0000 O.3     1  UNL1       -0.3877
      3 O           2.6079   -0.2270    0.0000 O.3     1  UNL1       -0.4526
      4 O           2.6079   -1.9034    0.0000 O.3     1  UNL1       -0.4526
      5 N           7.1256   -1.5652    0.0000 N.3     1  UNL1       -0.2914
      6 C           6.2596   -0.0652    0.0000 C.3     1  UNL1        0.0569
      7 C           7.1256   -0.5652    0.0000 C.3     1  UNL1        0.0290
      8 C           6.1461   -0.6688    0.0000 C.3     1  UNL1        0.0824
      9 C           6.5462   -1.3616    0.0000 C.3     1  UNL1        0.0268
     10 C           5.3935   -0.5652    0.0000 C.ar    1  UNL1       -0.0254
     11 C           8.0356   -0.0584    0.0000 C.3     1  UNL1       -0.0064
     12 C           6.2596   -2.0652    0.0000 C.3     1  UNL1        0.0249
     13 C           6.2435    0.9763    0.0000 C.2     1  UNL1       -0.0712
     14 C           5.3935   -1.5652    0.0000 C.ar    1  UNL1       -0.0255
     15 C           8.0436    0.9832    0.0000 C.3     1  UNL1        0.0748
     16 C           7.1415    1.5040    0.0000 C.2     1  UNL1       -0.0588
     17 C           4.4996   -0.0306    0.0000 C.ar    1  UNL1       -0.0117
     18 C           4.4996   -2.0999    0.0000 C.ar    1  UNL1       -0.0114
     19 C           3.5935   -0.5444    0.0000 C.ar    1  UNL1        0.1665
     20 C           3.5935   -1.5860    0.0000 C.ar    1  UNL1        0.1665
     21 C           2.0000   -1.0652    0.0000 C.3     1  UNL1        0.2332
     22 H           7.8617   -0.9902    0.0000 H       1  UNL1        0.0476
     23 H           5.6543   -1.0462    0.0000 H       1  UNL1        0.0618
     24 H           5.9434   -1.5069    0.0000 H       1  UNL1        0.0452
     25 H           6.5147   -1.9808    0.0000 H       1  UNL1        0.0452
     26 H           8.2401   -0.6437    0.0000 H       1  UNL1        0.0309
     27 H           8.6472    0.0430    0.0000 H       1  UNL1        0.0309
     28 H           5.8610   -2.5402    0.0000 H       1  UNL1        0.0476
     29 H           6.6581   -2.5402    0.0000 H       1  UNL1        0.0476
     30 H           5.7030    1.2801    0.0000 H       1  UNL1        0.0580
     31 H           8.0448    1.6032    0.0000 H       1  UNL1        0.0638
     32 H           7.1391    2.1240    0.0000 H       1  UNL1        0.0595
     33 H           4.5068    0.5894    0.0000 H       1  UNL1        0.0658
     34 H           5.5995    0.6372    0.0000 H       1  UNL1        0.2099
     35 H           4.5068   -2.7198    0.0000 H       1  UNL1        0.0658
     36 H           8.9139    2.0999    0.0000 H       1  UNL1        0.2102
     37 H           1.5391   -0.6505    0.0000 H       1  UNL1        0.1166
     38 H           1.5391   -1.4800    0.0000 H       1  UNL1        0.1166
@<TRIPOS>BOND
     1     8     1    1
     2     1    34    1
     3    15     2    1
     4     2    36    1
     5     3    19    1
     6     3    21    1
     7     4    20    1
     8     4    21    1
     9     5     7    1
    10     5     9    1
    11     5    12    1
    12     6     7    1
    13     6     8    1
    14     6    10    1
    15     6    13    1
    16     7    11    1
    17     7    22    1
    18     8     9    1
    19     8    23    1
    20     9    24    1
    21     9    25    1
    22    10    14   ar
    23    10    17   ar
    24    11    15    1
    25    11    26    1
    26    11    27    1
    27    12    14    1
    28    12    28    1
    29    12    29    1
    30    13    16    2
    31    13    30    1
    32    14    18   ar
    33    15    16    1
    34    15    31    1
    35    16    32    1
    36    17    19   ar
    37    17    33    1
    38    18    20   ar
    39    18    35    1
    40    19    20   ar
    41    21    37    1
    42    21    38    1
