@<TRIPOS>MOLECULE
IMPHY013538
 40 42 0 0 0
SMALL
GASTEIGER

@<TRIPOS>ATOM
      1 O           3.7230   -0.2119    0.0000 O.3     1  UNL1       -0.4563
      2 O           7.3840    1.8941    0.0000 O.3     1  UNL1       -0.3841
      3 O           5.4378   -2.1071    0.0000 O.3     1  UNL1       -0.3840
      4 O           8.0559   -0.2921    0.0000 O.2     1  UNL1       -0.2922
      5 O           2.0000    0.2202    0.0000 O.2     1  UNL1       -0.2505
      6 C           4.3551    1.2706    0.0000 C.3     1  UNL1        0.0129
      7 C           4.5777    0.2957    0.0000 C.3     1  UNL1        0.1310
      8 C           5.4786   -0.1382    0.0000 C.2     1  UNL1        0.0112
      9 C           4.9786    2.0525    0.0000 C.3     1  UNL1       -0.0429
     10 C           6.6021    1.2706    0.0000 C.3     1  UNL1        0.0916
     11 C           5.6146   -1.1229    0.0000 C.3     1  UNL1        0.0953
     12 C           6.3796    0.2957    0.0000 C.2     1  UNL1        0.0315
     13 C           3.3648    1.3572    0.0000 C.3     1  UNL1        0.0601
     14 C           5.9786    2.0525    0.0000 C.3     1  UNL1       -0.0196
     15 C           6.5929   -1.2996    0.0000 C.3     1  UNL1        0.0428
     16 C           7.0647   -0.4246    0.0000 C.2     1  UNL1        0.1651
     17 C           2.9749    0.4428    0.0000 C.2     1  UNL1        0.3109
     18 C           7.5770    1.0481    0.0000 C.3     1  UNL1       -0.0318
     19 C           4.6239   -1.2588    0.0000 C.3     1  UNL1       -0.0316
     20 C           2.8504    2.2147    0.0000 C.3     1  UNL1       -0.0519
     21 H           4.1107    1.8404    0.0000 H       1  UNL1        0.0348
     22 H           4.6047   -0.3237    0.0000 H       1  UNL1        0.0786
     23 H           5.1166    2.6569    0.0000 H       1  UNL1        0.0270
     24 H           4.4200    2.3215    0.0000 H       1  UNL1        0.0270
     25 H           3.6936    1.8829    0.0000 H       1  UNL1        0.0415
     26 H           6.5372    2.3215    0.0000 H       1  UNL1        0.0296
     27 H           5.8407    2.6569    0.0000 H       1  UNL1        0.0296
     28 H           6.4192   -1.8947    0.0000 H       1  UNL1        0.0376
     29 H           7.1665   -1.5348    0.0000 H       1  UNL1        0.0376
     30 H           7.4391    0.4437    0.0000 H       1  UNL1        0.0261
     31 H           8.1815    0.9102    0.0000 H       1  UNL1        0.0261
     32 H           7.7150    1.6526    0.0000 H       1  UNL1        0.0261
     33 H           4.5396   -0.6446    0.0000 H       1  UNL1        0.0261
     34 H           4.0097   -1.3431    0.0000 H       1  UNL1        0.0261
     35 H           4.7082   -1.8731    0.0000 H       1  UNL1        0.0261
     36 H           3.3821    2.5337    0.0000 H       1  UNL1        0.0238
     37 H           2.5315    2.7464    0.0000 H       1  UNL1        0.0238
     38 H           2.3188    1.8958    0.0000 H       1  UNL1        0.0238
     39 H           7.2916    2.5072    0.0000 H       1  UNL1        0.2106
     40 H           5.9114   -2.5072    0.0000 H       1  UNL1        0.2106
@<TRIPOS>BOND
     1     1     7    1
     2     1    17    1
     3     2    10    1
     4     2    39    1
     5     3    11    1
     6     3    40    1
     7     4    16    2
     8     5    17    2
     9     6     7    1
    10     6     9    1
    11     6    13    1
    12     6    21    1
    13     7     8    1
    14     7    22    1
    15     8    11    1
    16     8    12    2
    17     9    14    1
    18     9    23    1
    19     9    24    1
    20    10    12    1
    21    10    14    1
    22    10    18    1
    23    11    15    1
    24    11    19    1
    25    12    16    1
    26    13    17    1
    27    13    20    1
    28    13    25    1
    29    14    26    1
    30    14    27    1
    31    15    16    1
    32    15    28    1
    33    15    29    1
    34    18    30    1
    35    18    31    1
    36    18    32    1
    37    19    33    1
    38    19    34    1
    39    19    35    1
    40    20    36    1
    41    20    37    1
    42    20    38    1
