@<TRIPOS>MOLECULE
IMPHY008372
 99 105 0 0 0
SMALL
GASTEIGER

@<TRIPOS>ATOM
      1 O           5.1606   -0.5098    0.0000 O.3     1  UNL1       -0.4763
      2 O           6.9527    0.5248    0.0000 O.3     1  UNL1       -0.4767
      3 O           2.5405    2.0285    0.0000 O.2     1  UNL1       -0.5030
      4 O           8.0724   -4.0339    0.0000 O.3     1  UNL1       -0.3872
      5 O           2.5247    4.0768    0.0000 O.2     1  UNL1       -0.2836
      6 O           9.6290   -0.0248    0.0000 O.3     1  UNL1       -0.3844
      7 O           4.3024    6.1009    0.0000 O.3     1  UNL1       -0.3844
      8 C           5.1767    0.5317    0.0000 C.3     1  UNL1        0.1652
      9 C           4.3107    1.0317    0.0000 C.3     1  UNL1        0.0411
     10 C           5.7114   -0.3623    0.0000 C.3     1  UNL1        0.0096
     11 C           6.0427    1.0317    0.0000 C.3     1  UNL1        0.1601
     12 C           3.7760    0.1377    0.0000 C.3     1  UNL1       -0.0396
     13 C           5.2422   -1.1017    0.0000 C.3     1  UNL1       -0.0440
     14 C           4.2452   -0.9350    0.0000 C.3     1  UNL1       -0.0515
     15 C           4.3107    2.0317    0.0000 C.2     1  UNL1        0.0147
     16 C           3.4446    1.5317    0.0000 C.3     1  UNL1       -0.0516
     17 C           6.3452    0.4111    0.0000 C.3     1  UNL1       -0.0560
     18 C           6.7139   -0.9257    0.0000 C.3     1  UNL1       -0.0560
     19 C           6.0427    2.0317    0.0000 C.2     1  UNL1       -0.0326
     20 C           5.1767    2.5317    0.0000 C.2     1  UNL1       -0.0175
     21 C           6.0587   -1.0376    0.0000 C.ar    1  UNL1        0.1672
     22 C           6.9608   -0.5168    0.0000 C.ar    1  UNL1        0.1692
     23 C           3.4007    2.5385    0.0000 C.2     1  UNL1        0.1684
     24 C           6.0420   -2.1225    0.0000 C.ar    1  UNL1        0.0076
     25 C           5.1928    3.5732    0.0000 C.2     1  UNL1       -0.0447
     26 C           5.3274   -4.4090    0.0000 C.3     1  UNL1       -0.0118
     27 C           7.9086   -1.0447    0.0000 C.ar    1  UNL1        0.0290
     28 C           6.9774   -2.6722    0.0000 C.ar    1  UNL1       -0.0116
     29 C           5.0510   -2.5103    0.0000 C.3     1  UNL1       -0.0023
     30 C           4.8556   -5.4120    0.0000 C.3     1  UNL1       -0.0280
     31 C           3.3926    3.5801    0.0000 C.2     1  UNL1        0.2262
     32 C           4.2947    4.1009    0.0000 C.2     1  UNL1        0.0342
     33 C           4.7336   -3.5260    0.0000 C.2     1  UNL1       -0.0653
     34 C           6.3878   -4.4982    0.0000 C.3     1  UNL1       -0.0156
     35 C           7.1208   -3.7266    0.0000 C.3     1  UNL1        0.0811
     36 C           7.9170   -2.1297    0.0000 C.ar    1  UNL1       -0.0462
     37 C           8.7688   -0.5347    0.0000 C.3     1  UNL1        0.0889
     38 C           3.7503   -5.4964    0.0000 C.3     1  UNL1       -0.0439
     39 C           4.2986    5.1009    0.0000 C.3     1  UNL1        0.0890
     40 C           3.6267   -3.5847    0.0000 C.2     1  UNL1       -0.0841
     41 C           3.1317   -4.5766    0.0000 C.3     1  UNL1       -0.0340
     42 C           4.9355   -6.4088    0.0000 C.3     1  UNL1       -0.0593
     43 C           5.7588   -5.8412    0.0000 C.3     1  UNL1       -0.0593
     44 C           9.2788   -1.3949    0.0000 C.3     1  UNL1       -0.0320
     45 C           8.2588    0.3254    0.0000 C.3     1  UNL1       -0.0320
     46 C           5.2986    5.0971    0.0000 C.3     1  UNL1       -0.0320
     47 C           3.2986    5.1048    0.0000 C.3     1  UNL1       -0.0320
     48 H           6.7756    1.4623    0.0000 H       1  UNL1        0.0820
     49 H           3.3205    0.5583    0.0000 H       1  UNL1        0.0275
     50 H           3.2710   -0.2219    0.0000 H       1  UNL1        0.0275
     51 H           5.0596   -1.6942    0.0000 H       1  UNL1        0.0272
     52 H           5.8052   -1.3614    0.0000 H       1  UNL1        0.0272
     53 H           3.6401   -1.0701    0.0000 H       1  UNL1        0.0266
     54 H           4.2619   -1.5548    0.0000 H       1  UNL1        0.0266
     55 H           3.7546    2.0686    0.0000 H       1  UNL1        0.0240
     56 H           2.9077    1.8417    0.0000 H       1  UNL1        0.0240
     57 H           3.1346    0.9947    0.0000 H       1  UNL1        0.0240
     58 H           6.8248    0.0181    0.0000 H       1  UNL1        0.0236
     59 H           6.7382    0.8907    0.0000 H       1  UNL1        0.0236
     60 H           5.8657    0.8042    0.0000 H       1  UNL1        0.0236
     61 H           6.4101   -1.4662    0.0000 H       1  UNL1        0.0236
     62 H           7.2544   -1.2295    0.0000 H       1  UNL1        0.0236
     63 H           7.0176   -0.3852    0.0000 H       1  UNL1        0.0236
     64 H           6.5797    2.3417    0.0000 H       1  UNL1        0.0616
     65 H           5.7332    3.8769    0.0000 H       1  UNL1        0.0628
     66 H           5.7524   -5.1452    0.0000 H       1  UNL1        0.0352
     67 H           4.9597   -1.8970    0.0000 H       1  UNL1        0.0360
     68 H           4.4328   -2.4622    0.0000 H       1  UNL1        0.0360
     69 H           6.1992   -5.0888    0.0000 H       1  UNL1        0.0299
     70 H           6.9214   -4.8140    0.0000 H       1  UNL1        0.0299
     71 H           7.5962   -3.3287    0.0000 H       1  UNL1        0.0644
     72 H           8.4551   -2.4376    0.0000 H       1  UNL1        0.0626
     73 H           3.1842   -5.7492    0.0000 H       1  UNL1        0.0274
     74 H           3.9026   -6.0974    0.0000 H       1  UNL1        0.0274
     75 H           3.2866   -3.0663    0.0000 H       1  UNL1        0.0572
     76 H           2.6325   -4.2089    0.0000 H       1  UNL1        0.0308
     77 H           2.6840   -5.0055    0.0000 H       1  UNL1        0.0308
     78 H           2.0000    2.3323    0.0000 H       1  UNL1        0.2923
     79 H           5.4927   -6.4012    0.0000 H       1  UNL1        0.0235
     80 H           6.3188   -6.1073    0.0000 H       1  UNL1        0.0235
     81 H           6.0249   -5.2812    0.0000 H       1  UNL1        0.0235
     82 H           4.3174   -6.4584    0.0000 H       1  UNL1        0.0235
     83 H           4.9850   -7.0268    0.0000 H       1  UNL1        0.0235
     84 H           5.5535   -6.3593    0.0000 H       1  UNL1        0.0235
     85 H           8.7922    0.6416    0.0000 H       1  UNL1        0.0260
     86 H           7.9427    0.8588    0.0000 H       1  UNL1        0.0260
     87 H           7.7255    0.0092    0.0000 H       1  UNL1        0.0260
     88 H           8.7455   -1.7111    0.0000 H       1  UNL1        0.0260
     89 H           9.5950   -1.9282    0.0000 H       1  UNL1        0.0260
     90 H           9.8121   -1.0788    0.0000 H       1  UNL1        0.0260
     91 H           8.2024   -4.6401    0.0000 H       1  UNL1        0.2102
     92 H           5.2962    4.4771    0.0000 H       1  UNL1        0.0260
     93 H           3.3010    5.7248    0.0000 H       1  UNL1        0.0260
     94 H           2.6786    5.1072    0.0000 H       1  UNL1        0.0260
     95 H           3.2962    4.4848    0.0000 H       1  UNL1        0.0260
     96 H           5.9186    5.0947    0.0000 H       1  UNL1        0.0260
     97 H           5.3010    5.7171    0.0000 H       1  UNL1        0.0260
     98 H          10.1695   -0.3285    0.0000 H       1  UNL1        0.2106
     99 H           4.8406    6.4088    0.0000 H       1  UNL1        0.2106
@<TRIPOS>BOND
     1     8     1    1
     2     1    21    1
     3     2    11    1
     4     2    22    1
     5     3    23    1
     6     3    78    1
     7    35     4    1
     8     4    91    1
     9     5    31    2
    10     6    37    1
    11     6    98    1
    12     7    39    1
    13     7    99    1
    14     8     9    1
    15     8    10    1
    16     8    11    1
    17     9    12    1
    18     9    15    1
    19     9    16    1
    20    10    13    1
    21    10    17    1
    22    10    18    1
    23    11    19    1
    24    11    48    1
    25    12    14    1
    26    12    49    1
    27    12    50    1
    28    13    14    1
    29    13    51    1
    30    13    52    1
    31    14    53    1
    32    14    54    1
    33    15    20    1
    34    15    23    2
    35    16    55    1
    36    16    56    1
    37    16    57    1
    38    17    58    1
    39    17    59    1
    40    17    60    1
    41    18    61    1
    42    18    62    1
    43    18    63    1
    44    19    20    2
    45    19    64    1
    46    20    25    1
    47    21    22   ar
    48    21    24   ar
    49    22    27   ar
    50    23    31    1
    51    24    28   ar
    52    24    29    1
    53    25    32    2
    54    25    65    1
    55    26    30    1
    56    26    33    1
    57    26    34    1
    58    26    66    1
    59    27    36   ar
    60    27    37    1
    61    28    35    1
    62    28    36   ar
    63    29    33    1
    64    29    67    1
    65    29    68    1
    66    30    38    1
    67    30    42    1
    68    30    43    1
    69    31    32    1
    70    32    39    1
    71    33    40    2
    72    34    35    1
    73    34    69    1
    74    34    70    1
    75    35    71    1
    76    36    72    1
    77    37    44    1
    78    37    45    1
    79    38    41    1
    80    38    73    1
    81    38    74    1
    82    39    46    1
    83    39    47    1
    84    40    41    1
    85    40    75    1
    86    41    76    1
    87    41    77    1
    88    42    82    1
    89    42    83    1
    90    42    84    1
    91    43    79    1
    92    43    80    1
    93    43    81    1
    94    44    88    1
    95    44    89    1
    96    44    90    1
    97    45    85    1
    98    45    86    1
    99    45    87    1
   100    46    92    1
   101    46    96    1
   102    46    97    1
   103    47    93    1
   104    47    94    1
   105    47    95    1
