@<TRIPOS>MOLECULE
IMPHY017155
 47 46 0 0 0
SMALL
GASTEIGER

@<TRIPOS>ATOM
      1 O          10.6603    0.7500    0.0000 O.3     1  UNL1       -0.4646
      2 O          11.5263   -0.7500    0.0000 O.2     1  UNL1       -0.2508
      3 C           6.3301    0.2500    0.0000 C.3     1  UNL1       -0.0531
      4 C           5.4641    0.7500    0.0000 C.3     1  UNL1       -0.0531
      5 C           7.1962    0.7500    0.0000 C.3     1  UNL1       -0.0530
      6 C           4.5981    0.2500    0.0000 C.3     1  UNL1       -0.0531
      7 C           8.0622    0.2500    0.0000 C.3     1  UNL1       -0.0500
      8 C           3.7320    0.7500    0.0000 C.3     1  UNL1       -0.0533
      9 C           8.9282    0.7500    0.0000 C.3     1  UNL1       -0.0185
     10 C           2.8660    0.2500    0.0000 C.3     1  UNL1       -0.0559
     11 C           9.7942    0.2500    0.0000 C.3     1  UNL1        0.0925
     12 C          13.2583    0.2500    0.0000 C.3     1  UNL1       -0.0367
     13 C          12.3923    0.7500    0.0000 C.3     1  UNL1        0.0473
     14 C           2.0000    0.7500    0.0000 C.3     1  UNL1       -0.0653
     15 C          11.5263    0.2500    0.0000 C.2     1  UNL1        0.3073
     16 C          14.1244    0.7500    0.0000 C.3     1  UNL1       -0.0622
     17 C          13.2583   -0.7500    0.0000 C.3     1  UNL1       -0.0622
     18 H           5.9316   -0.2249    0.0000 H       1  UNL1        0.0265
     19 H           6.7287   -0.2249    0.0000 H       1  UNL1        0.0265
     20 H           5.8626    1.2250    0.0000 H       1  UNL1        0.0265
     21 H           5.0656    1.2250    0.0000 H       1  UNL1        0.0265
     22 H           7.5947    1.2250    0.0000 H       1  UNL1        0.0265
     23 H           6.7976    1.2250    0.0000 H       1  UNL1        0.0265
     24 H           4.1996   -0.2249    0.0000 H       1  UNL1        0.0265
     25 H           4.9966   -0.2249    0.0000 H       1  UNL1        0.0265
     26 H           7.6636   -0.2249    0.0000 H       1  UNL1        0.0266
     27 H           8.4607   -0.2249    0.0000 H       1  UNL1        0.0266
     28 H           4.1306    1.2250    0.0000 H       1  UNL1        0.0265
     29 H           3.3335    1.2250    0.0000 H       1  UNL1        0.0265
     30 H           9.3267    1.2250    0.0000 H       1  UNL1        0.0298
     31 H           8.5297    1.2250    0.0000 H       1  UNL1        0.0298
     32 H           2.4675   -0.2249    0.0000 H       1  UNL1        0.0263
     33 H           3.2646   -0.2249    0.0000 H       1  UNL1        0.0263
     34 H           9.3957   -0.2249    0.0000 H       1  UNL1        0.0697
     35 H          10.1928   -0.2249    0.0000 H       1  UNL1        0.0697
     36 H          13.7953   -0.0600    0.0000 H       1  UNL1        0.0301
     37 H          12.7908    1.2250    0.0000 H       1  UNL1        0.0380
     38 H          11.9938    1.2250    0.0000 H       1  UNL1        0.0380
     39 H           2.3100    1.2869    0.0000 H       1  UNL1        0.0230
     40 H           1.4631    1.0600    0.0000 H       1  UNL1        0.0230
     41 H           1.6900    0.2131    0.0000 H       1  UNL1        0.0230
     42 H          14.4344    0.2131    0.0000 H       1  UNL1        0.0232
     43 H          14.6613    1.0600    0.0000 H       1  UNL1        0.0232
     44 H          13.8144    1.2869    0.0000 H       1  UNL1        0.0232
     45 H          12.6383   -0.7500    0.0000 H       1  UNL1        0.0232
     46 H          13.2583   -1.3700    0.0000 H       1  UNL1        0.0232
     47 H          13.8783   -0.7500    0.0000 H       1  UNL1        0.0232
@<TRIPOS>BOND
     1     1    11    1
     2     1    15    1
     3     2    15    2
     4     3     4    1
     5     3     5    1
     6     3    18    1
     7     3    19    1
     8     4     6    1
     9     4    20    1
    10     4    21    1
    11     5     7    1
    12     5    22    1
    13     5    23    1
    14     6     8    1
    15     6    24    1
    16     6    25    1
    17     7     9    1
    18     7    26    1
    19     7    27    1
    20     8    10    1
    21     8    28    1
    22     8    29    1
    23     9    11    1
    24     9    30    1
    25     9    31    1
    26    10    14    1
    27    10    32    1
    28    10    33    1
    29    11    34    1
    30    11    35    1
    31    12    13    1
    32    12    16    1
    33    12    17    1
    34    12    36    1
    35    13    15    1
    36    13    37    1
    37    13    38    1
    38    14    39    1
    39    14    40    1
    40    14    41    1
    41    16    42    1
    42    16    43    1
    43    16    44    1
    44    17    45    1
    45    17    46    1
    46    17    47    1
