@<TRIPOS>MOLECULE
IMPHY008089
 45 45 0 0 0
SMALL
GASTEIGER

@<TRIPOS>ATOM
      1 O           9.0991    0.1340    0.0000 O.3     1  UNL1       -0.3673
      2 O           2.5369    0.5000    0.0000 O.3     1  UNL1       -0.3837
      3 C           9.5991    1.0000    0.0000 C.3     1  UNL1        0.0862
      4 C           8.5991    1.0000    0.0000 C.3     1  UNL1        0.0960
      5 C          10.4651    1.5000    0.0000 C.3     1  UNL1       -0.0241
      6 C          11.3312    1.0000    0.0000 C.3     1  UNL1       -0.0506
      7 C           7.7331    1.5000    0.0000 C.3     1  UNL1        0.0382
      8 C          12.1972    1.5000    0.0000 C.3     1  UNL1       -0.0530
      9 C          13.0632    1.0000    0.0000 C.3     1  UNL1       -0.0531
     10 C          13.9292    1.5000    0.0000 C.3     1  UNL1       -0.0533
     11 C           6.8671    1.0000    0.0000 C.1     1  UNL1       -0.0949
     12 C          14.7953    1.0000    0.0000 C.3     1  UNL1       -0.0559
     13 C          15.6613    1.5000    0.0000 C.3     1  UNL1       -0.0653
     14 C           6.0010    0.5000    0.0000 C.1     1  UNL1       -0.0742
     15 C           5.1350   -0.0000    0.0000 C.2     1  UNL1       -0.0128
     16 C           4.2690    0.5000    0.0000 C.2     1  UNL1       -0.0439
     17 C           3.4030   -0.0000    0.0000 C.3     1  UNL1        0.0922
     18 C           3.4030   -1.0000    0.0000 C.2     1  UNL1       -0.0591
     19 C           2.5369   -1.5000    0.0000 C.2     1  UNL1       -0.0999
     20 H          10.0375    0.5616    0.0000 H       1  UNL1        0.0622
     21 H           8.1607    0.5616    0.0000 H       1  UNL1        0.0631
     22 H          10.8637    1.9750    0.0000 H       1  UNL1        0.0291
     23 H          10.0666    1.9750    0.0000 H       1  UNL1        0.0291
     24 H          10.9326    0.5251    0.0000 H       1  UNL1        0.0266
     25 H          11.7297    0.5251    0.0000 H       1  UNL1        0.0266
     26 H           8.1316    1.9750    0.0000 H       1  UNL1        0.0424
     27 H           7.3346    1.9750    0.0000 H       1  UNL1        0.0424
     28 H          12.5957    1.9750    0.0000 H       1  UNL1        0.0265
     29 H          11.7987    1.9750    0.0000 H       1  UNL1        0.0265
     30 H          12.6647    0.5251    0.0000 H       1  UNL1        0.0265
     31 H          13.4617    0.5251    0.0000 H       1  UNL1        0.0265
     32 H          14.3278    1.9750    0.0000 H       1  UNL1        0.0265
     33 H          13.5307    1.9750    0.0000 H       1  UNL1        0.0265
     34 H          14.3967    0.5251    0.0000 H       1  UNL1        0.0263
     35 H          15.1938    0.5251    0.0000 H       1  UNL1        0.0263
     36 H          15.9713    0.9631    0.0000 H       1  UNL1        0.0230
     37 H          16.1982    1.8100    0.0000 H       1  UNL1        0.0230
     38 H          15.3513    2.0369    0.0000 H       1  UNL1        0.0230
     39 H           5.1350   -0.6200    0.0000 H       1  UNL1        0.0710
     40 H           4.2690    1.1200    0.0000 H       1  UNL1        0.0607
     41 H           3.4030    0.6200    0.0000 H       1  UNL1        0.0682
     42 H           3.9399   -1.3100    0.0000 H       1  UNL1        0.0595
     43 H           2.0000    0.1900    0.0000 H       1  UNL1        0.2106
     44 H           2.0000   -1.1900    0.0000 H       1  UNL1        0.0533
     45 H           2.5369   -2.1200    0.0000 H       1  UNL1        0.0533
@<TRIPOS>BOND
     1     1     3    1
     2     1     4    1
     3     2    17    1
     4     2    43    1
     5     3     4    1
     6     3     5    1
     7     3    20    1
     8     4     7    1
     9     4    21    1
    10     5     6    1
    11     5    22    1
    12     5    23    1
    13     6     8    1
    14     6    24    1
    15     6    25    1
    16     7    11    1
    17     7    26    1
    18     7    27    1
    19     8     9    1
    20     8    28    1
    21     8    29    1
    22     9    10    1
    23     9    30    1
    24     9    31    1
    25    10    12    1
    26    10    32    1
    27    10    33    1
    28    11    14    3
    29    12    13    1
    30    12    34    1
    31    12    35    1
    32    13    36    1
    33    13    37    1
    34    13    38    1
    35    14    15    1
    36    15    16    2
    37    15    39    1
    38    16    17    1
    39    16    40    1
    40    17    18    1
    41    17    41    1
    42    18    19    2
    43    18    42    1
    44    19    44    1
    45    19    45    1
