@<TRIPOS>MOLECULE
IMPHY016959
 33 33 0 0 0
SMALL
GASTEIGER

@<TRIPOS>ATOM
      1 O           3.7601    0.4629    0.0000 O.3     1  UNL1       -0.4611
      2 O           2.0000    0.7417    0.0000 O.2     1  UNL1       -0.2508
      3 C           4.5691    1.0507    0.0000 C.3     1  UNL1        0.1061
      4 C           4.2601    2.0018    0.0000 C.3     1  UNL1        0.0034
      5 C           5.5202    0.7417    0.0000 C.3     1  UNL1       -0.0154
      6 C           3.2601    2.0018    0.0000 C.3     1  UNL1        0.0509
      7 C           5.7281   -0.2365    0.0000 C.3     1  UNL1       -0.0497
      8 C           6.6791   -0.5455    0.0000 C.3     1  UNL1       -0.0530
      9 C           4.8479    2.8108    0.0000 C.3     1  UNL1       -0.0585
     10 C           2.9511    1.0507    0.0000 C.2     1  UNL1        0.3077
     11 C           6.8870   -1.5236    0.0000 C.3     1  UNL1       -0.0533
     12 C           7.8381   -1.8326    0.0000 C.3     1  UNL1       -0.0559
     13 C           8.0460   -2.8108    0.0000 C.3     1  UNL1       -0.0653
     14 H           4.7021    0.2112    0.0000 H       1  UNL1        0.0736
     15 H           5.0996    1.8688    0.0000 H       1  UNL1        0.0339
     16 H           6.1398    0.7633    0.0000 H       1  UNL1        0.0301
     17 H           5.6064    1.3557    0.0000 H       1  UNL1        0.0301
     18 H           3.3249    2.6184    0.0000 H       1  UNL1        0.0381
     19 H           2.6536    2.1307    0.0000 H       1  UNL1        0.0381
     20 H           5.1084   -0.2581    0.0000 H       1  UNL1        0.0266
     21 H           5.6418   -0.8504    0.0000 H       1  UNL1        0.0266
     22 H           7.2987   -0.5238    0.0000 H       1  UNL1        0.0265
     23 H           6.7654    0.0685    0.0000 H       1  UNL1        0.0265
     24 H           5.3494    2.4464    0.0000 H       1  UNL1        0.0234
     25 H           5.2123    3.3124    0.0000 H       1  UNL1        0.0234
     26 H           4.3463    3.1752    0.0000 H       1  UNL1        0.0234
     27 H           6.2674   -1.5453    0.0000 H       1  UNL1        0.0265
     28 H           6.8007   -2.1376    0.0000 H       1  UNL1        0.0265
     29 H           8.4577   -1.8110    0.0000 H       1  UNL1        0.0263
     30 H           7.9244   -1.2187    0.0000 H       1  UNL1        0.0263
     31 H           7.4395   -2.9397    0.0000 H       1  UNL1        0.0230
     32 H           8.1749   -3.4172    0.0000 H       1  UNL1        0.0230
     33 H           8.6524   -2.6819    0.0000 H       1  UNL1        0.0230
@<TRIPOS>BOND
     1     1     3    1
     2     1    10    1
     3     2    10    2
     4     3     4    1
     5     3     5    1
     6     3    14    1
     7     4     6    1
     8     4     9    1
     9     4    15    1
    10     5     7    1
    11     5    16    1
    12     5    17    1
    13     6    10    1
    14     6    18    1
    15     6    19    1
    16     7     8    1
    17     7    20    1
    18     7    21    1
    19     8    11    1
    20     8    22    1
    21     8    23    1
    22     9    24    1
    23     9    25    1
    24     9    26    1
    25    11    12    1
    26    11    27    1
    27    11    28    1
    28    12    13    1
    29    12    29    1
    30    12    30    1
    31    13    31    1
    32    13    32    1
    33    13    33    1
