@<TRIPOS>MOLECULE
IMPHY002041
 53 55 0 0 0
SMALL
GASTEIGER

@<TRIPOS>ATOM
      1 O           3.0666    3.6234    0.0000 O.3     1  UNL1       -0.3612
      2 O           3.5594    2.2825    0.0000 O.3     1  UNL1       -0.4546
      3 O           4.8808   -0.3404    0.0000 O.3     1  UNL1       -0.4570
      4 O           2.0000    1.2187    0.0000 O.2     1  UNL1       -0.2453
      5 O           6.5750   -0.7005    0.0000 O.2     1  UNL1       -0.2452
      6 O           4.2570   -3.2748    0.0000 O.3     1  UNL1       -0.3902
      7 O           6.6944   -4.3040    0.0000 O.3     1  UNL1       -0.3910
      8 C           4.0182    3.9324    0.0000 C.3     1  UNL1        0.0972
      9 C           3.8103    2.9542    0.0000 C.3     1  UNL1        0.1255
     10 C           4.5534    2.2851    0.0000 C.3     1  UNL1        0.1424
     11 C           4.3455    1.3069    0.0000 C.3     1  UNL1        0.0673
     12 C           4.9692    4.2414    0.0000 C.3     1  UNL1       -0.0180
     13 C           4.2261    4.9105    0.0000 C.3     1  UNL1       -0.0332
     14 C           5.0887    0.6378    0.0000 C.3     1  UNL1        0.1175
     15 C           5.7124    3.5722    0.0000 C.3     1  UNL1       -0.0318
     16 C           3.5398    0.7247    0.0000 C.2     1  UNL1        0.0397
     17 C           6.0397    0.9468    0.0000 C.3     1  UNL1        0.0060
     18 C           2.9945    1.3232    0.0000 C.2     1  UNL1        0.3355
     19 C           5.5045    2.5941    0.0000 C.2     1  UNL1       -0.0848
     20 C           6.2476    1.9250    0.0000 C.2     1  UNL1       -0.0730
     21 C           3.3302   -0.2531    0.0000 C.2     1  UNL1       -0.0882
     22 C           7.1987    2.2340    0.0000 C.3     1  UNL1       -0.0437
     23 C           5.6239   -1.0095    0.0000 C.2     1  UNL1        0.3374
     24 C           5.4160   -1.9876    0.0000 C.2     1  UNL1        0.0599
     25 C           4.4649   -2.2966    0.0000 C.3     1  UNL1        0.0757
     26 C           6.1591   -2.6568    0.0000 C.2     1  UNL1       -0.0468
     27 C           5.9512   -3.6349    0.0000 C.3     1  UNL1        0.0632
     28 H           3.2416    2.3224    0.0000 H       1  UNL1        0.0662
     29 H           5.1431    2.4767    0.0000 H       1  UNL1        0.0769
     30 H           4.2999    0.4581    0.0000 H       1  UNL1        0.0424
     31 H           5.4578    4.6231    0.0000 H       1  UNL1        0.0297
     32 H           4.6782    4.7888    0.0000 H       1  UNL1        0.0297
     33 H           4.8326    4.7816    0.0000 H       1  UNL1        0.0258
     34 H           4.3550    5.5169    0.0000 H       1  UNL1        0.0258
     35 H           3.6197    5.0394    0.0000 H       1  UNL1        0.0258
     36 H           5.5494    0.2229    0.0000 H       1  UNL1        0.0744
     37 H           6.2872    3.3400    0.0000 H       1  UNL1        0.0308
     38 H           6.0409    4.0980    0.0000 H       1  UNL1        0.0308
     39 H           6.1260    0.3328    0.0000 H       1  UNL1        0.0346
     40 H           6.6593    0.9252    0.0000 H       1  UNL1        0.0346
     41 H           4.9297    2.8265    0.0000 H       1  UNL1        0.0572
     42 H           2.7402   -0.4436    0.0000 H       1  UNL1        0.0540
     43 H           3.7902   -0.6687    0.0000 H       1  UNL1        0.0540
     44 H           7.3903    1.6443    0.0000 H       1  UNL1        0.0274
     45 H           7.7883    2.4256    0.0000 H       1  UNL1        0.0274
     46 H           7.0071    2.8236    0.0000 H       1  UNL1        0.0274
     47 H           4.3786   -1.6827    0.0000 H       1  UNL1        0.0609
     48 H           3.8453   -2.2750    0.0000 H       1  UNL1        0.0609
     49 H           6.7488   -2.4652    0.0000 H       1  UNL1        0.0600
     50 H           5.3764   -3.4027    0.0000 H       1  UNL1        0.0601
     51 H           5.6227   -4.1607    0.0000 H       1  UNL1        0.0601
     52 H           3.6674   -3.4664    0.0000 H       1  UNL1        0.2099
     53 H           6.5655   -4.9105    0.0000 H       1  UNL1        0.2098
@<TRIPOS>BOND
     1     1     8    1
     2     1     9    1
     3     2    10    1
     4     2    18    1
     5    14     3    1
     6     3    23    1
     7     4    18    2
     8     5    23    2
     9     6    25    1
    10     6    52    1
    11     7    27    1
    12     7    53    1
    13     8     9    1
    14     8    12    1
    15     8    13    1
    16     9    10    1
    17     9    28    1
    18    10    11    1
    19    10    29    1
    20    11    14    1
    21    11    16    1
    22    11    30    1
    23    12    15    1
    24    12    31    1
    25    12    32    1
    26    13    33    1
    27    13    34    1
    28    13    35    1
    29    14    17    1
    30    14    36    1
    31    15    19    1
    32    15    37    1
    33    15    38    1
    34    16    18    1
    35    16    21    2
    36    17    20    1
    37    17    39    1
    38    17    40    1
    39    19    20    2
    40    19    41    1
    41    20    22    1
    42    21    42    1
    43    21    43    1
    44    22    44    1
    45    22    45    1
    46    22    46    1
    47    23    24    1
    48    24    25    1
    49    24    26    2
    50    25    47    1
    51    25    48    1
    52    26    27    1
    53    26    49    1
    54    27    50    1
    55    27    51    1
