@<TRIPOS>MOLECULE
IMPHY017145
 18 17 0 0 0
SMALL
GASTEIGER

@<TRIPOS>ATOM
      1 S           5.1350   -0.2500    0.0000 S.3     1  UNL1       -0.0908
      2 S           6.0010    0.2500    0.0000 S.3     1  UNL1       -0.0908
      3 O           2.5369    0.2500    0.0000 O.3     1  UNL1       -0.3942
      4 O           8.5991   -0.2500    0.0000 O.3     1  UNL1       -0.3942
      5 C           4.2690    0.2500    0.0000 C.3     1  UNL1        0.0271
      6 C           6.8671   -0.2500    0.0000 C.3     1  UNL1        0.0271
      7 C           3.4030   -0.2500    0.0000 C.3     1  UNL1        0.0540
      8 C           7.7331    0.2500    0.0000 C.3     1  UNL1        0.0540
      9 H           4.6675    0.7249    0.0000 H       1  UNL1        0.0407
     10 H           3.8705    0.7249    0.0000 H       1  UNL1        0.0407
     11 H           6.4685   -0.7249    0.0000 H       1  UNL1        0.0407
     12 H           7.2656   -0.7249    0.0000 H       1  UNL1        0.0407
     13 H           3.0044   -0.7249    0.0000 H       1  UNL1        0.0565
     14 H           3.8015   -0.7249    0.0000 H       1  UNL1        0.0565
     15 H           8.1316    0.7249    0.0000 H       1  UNL1        0.0565
     16 H           7.3346    0.7249    0.0000 H       1  UNL1        0.0565
     17 H           2.0000   -0.0600    0.0000 H       1  UNL1        0.2094
     18 H           9.1360    0.0600    0.0000 H       1  UNL1        0.2094
@<TRIPOS>BOND
     1     1     2    1
     2     1     5    1
     3     2     6    1
     4     3     7    1
     5     3    17    1
     6     4     8    1
     7     4    18    1
     8     5     7    1
     9     5     9    1
    10     5    10    1
    11     6     8    1
    12     6    11    1
    13     6    12    1
    14     7    13    1
    15     7    14    1
    16     8    15    1
    17     8    16    1
