@<TRIPOS>MOLECULE
IMPHY002179
 40 40 0 0 0
SMALL
GASTEIGER

@<TRIPOS>ATOM
      1 O           2.0000    1.6833    0.0000 O.2     1  UNL1       -0.2971
      2 C           5.7114   -0.8711    0.0000 C.3     1  UNL1       -0.0135
      3 C           5.0565   -1.6268    0.0000 C.3     1  UNL1       -0.0259
      4 C           3.5970    1.5690    0.0000 C.3     1  UNL1        0.0181
      5 C           5.8537    0.1188    0.0000 C.2     1  UNL1       -0.0820
      6 C           4.5970    1.5690    0.0000 C.3     1  UNL1       -0.0255
      7 C           6.0384   -1.8160    0.0000 C.3     1  UNL1       -0.0561
      8 C           6.7012   -1.0134    0.0000 C.3     1  UNL1       -0.0561
      9 C           2.4826   -0.8711    0.0000 C.3     1  UNL1       -0.0253
     10 C           4.0970   -1.9085    0.0000 C.2     1  UNL1       -0.0842
     11 C           2.3403    0.1188    0.0000 C.3     1  UNL1        0.0098
     12 C           5.4383    1.0284    0.0000 C.2     1  UNL1       -0.0868
     13 C           3.1375   -1.6268    0.0000 C.2     1  UNL1       -0.0761
     14 C           2.7558    1.0284    0.0000 C.2     1  UNL1        0.1367
     15 C           3.3153    2.5285    0.0000 C.3     1  UNL1       -0.0554
     16 C           2.5969   -2.4681    0.0000 C.3     1  UNL1       -0.0438
     17 H           5.0270   -2.2461    0.0000 H       1  UNL1        0.0316
     18 H           4.7213   -1.1052    0.0000 H       1  UNL1        0.0316
     19 H           3.9686    2.0654    0.0000 H       1  UNL1        0.0378
     20 H           6.4674    0.2070    0.0000 H       1  UNL1        0.0574
     21 H           5.0844    1.9523    0.0000 H       1  UNL1        0.0314
     22 H           4.4223    0.9742    0.0000 H       1  UNL1        0.0314
     23 H           6.6129   -1.6271    0.0000 H       1  UNL1        0.0238
     24 H           7.3149   -1.1016    0.0000 H       1  UNL1        0.0238
     25 H           6.7894   -0.3997    0.0000 H       1  UNL1        0.0238
     26 H           5.4525   -2.0188    0.0000 H       1  UNL1        0.0238
     27 H           6.2412   -2.4019    0.0000 H       1  UNL1        0.0238
     28 H           6.6243   -1.6133    0.0000 H       1  UNL1        0.0238
     29 H           1.8738   -0.7537    0.0000 H       1  UNL1        0.0314
     30 H           3.0466   -0.6135    0.0000 H       1  UNL1        0.0314
     31 H           1.8916    0.5466    0.0000 H       1  UNL1        0.0345
     32 H           2.9540    0.0305    0.0000 H       1  UNL1        0.0345
     33 H           4.0970   -2.5285    0.0000 H       1  UNL1        0.0572
     34 H           5.9068    1.4344    0.0000 H       1  UNL1        0.0569
     35 H           3.9102    2.7032    0.0000 H       1  UNL1        0.0237
     36 H           3.1406    3.1234    0.0000 H       1  UNL1        0.0237
     37 H           2.7204    2.3539    0.0000 H       1  UNL1        0.0237
     38 H           2.0753   -2.1329    0.0000 H       1  UNL1        0.0274
     39 H           2.2617   -2.9896    0.0000 H       1  UNL1        0.0274
     40 H           3.1184   -2.8032    0.0000 H       1  UNL1        0.0274
@<TRIPOS>BOND
     1     1    14    2
     2     2     3    1
     3     2     5    1
     4     2     7    1
     5     2     8    1
     6     3    10    1
     7     3    17    1
     8     3    18    1
     9     4     6    1
    10     4    14    1
    11     4    15    1
    12     4    19    1
    13     5    12    2
    14     5    20    1
    15     6    12    1
    16     6    21    1
    17     6    22    1
    18     7    26    1
    19     7    27    1
    20     7    28    1
    21     8    23    1
    22     8    24    1
    23     8    25    1
    24     9    11    1
    25     9    13    1
    26     9    29    1
    27     9    30    1
    28    10    13    2
    29    10    33    1
    30    11    14    1
    31    11    31    1
    32    11    32    1
    33    12    34    1
    34    13    16    1
    35    15    35    1
    36    15    36    1
    37    15    37    1
    38    16    38    1
    39    16    39    1
    40    16    40    1
