@<TRIPOS>MOLECULE
IMPHY000376
 13 12 0 0 0
SMALL
GASTEIGER

@<TRIPOS>ATOM
      1 O           6.0010   -0.2500    0.0000 O.3     1  UNL1       -0.3949
      2 O           2.5369   -0.2500    0.0000 O.3     1  UNL1       -0.3949
      3 C           4.2690   -0.2500    0.0000 C.3     1  UNL1       -0.0064
      4 C           5.1350    0.2500    0.0000 C.3     1  UNL1        0.0463
      5 C           3.4030    0.2500    0.0000 C.3     1  UNL1        0.0463
      6 H           3.8705   -0.7249    0.0000 H       1  UNL1        0.0309
      7 H           4.6675   -0.7249    0.0000 H       1  UNL1        0.0309
      8 H           5.5335    0.7249    0.0000 H       1  UNL1        0.0558
      9 H           4.7365    0.7249    0.0000 H       1  UNL1        0.0558
     10 H           3.8015    0.7249    0.0000 H       1  UNL1        0.0558
     11 H           3.0044    0.7249    0.0000 H       1  UNL1        0.0558
     12 H           6.5380    0.0600    0.0000 H       1  UNL1        0.2094
     13 H           2.0000    0.0600    0.0000 H       1  UNL1        0.2094
@<TRIPOS>BOND
     1     1     4    1
     2     1    12    1
     3     2     5    1
     4     2    13    1
     5     3     4    1
     6     3     5    1
     7     3     6    1
     8     3     7    1
     9     4     8    1
    10     4     9    1
    11     5    10    1
    12     5    11    1
