@<TRIPOS>MOLECULE
IMPHY013331
 30 29 0 0 0
SMALL
GASTEIGER

@<TRIPOS>ATOM
      1 O           5.4641   -1.0950    0.0000 O.3     1  UNL1       -0.3872
      2 O           8.9282   -0.0950    0.0000 O.3     1  UNL1       -0.3910
      3 C           5.4641   -0.0950    0.0000 C.3     1  UNL1        0.0795
      4 C           4.5981    0.4050    0.0000 C.3     1  UNL1       -0.0045
      5 C           6.3301    0.4050    0.0000 C.2     1  UNL1       -0.0460
      6 C           3.7320   -0.0950    0.0000 C.2     1  UNL1       -0.0825
      7 C           2.8660    0.4050    0.0000 C.2     1  UNL1       -0.0795
      8 C           6.3301    1.4050    0.0000 C.3     1  UNL1       -0.0413
      9 C           7.1962   -0.0950    0.0000 C.2     1  UNL1       -0.0575
     10 C           8.0622    0.4050    0.0000 C.3     1  UNL1        0.0627
     11 C           2.0000   -0.0950    0.0000 C.3     1  UNL1       -0.0440
     12 C           2.8660    1.4050    0.0000 C.3     1  UNL1       -0.0440
     13 H           6.0010   -0.4050    0.0000 H       1  UNL1        0.0643
     14 H           4.9966    0.8799    0.0000 H       1  UNL1        0.0336
     15 H           4.1996    0.8799    0.0000 H       1  UNL1        0.0336
     16 H           3.7320   -0.7150    0.0000 H       1  UNL1        0.0572
     17 H           6.9501    1.4050    0.0000 H       1  UNL1        0.0275
     18 H           6.3301    2.0250    0.0000 H       1  UNL1        0.0275
     19 H           5.7101    1.4050    0.0000 H       1  UNL1        0.0275
     20 H           7.1962   -0.7150    0.0000 H       1  UNL1        0.0595
     21 H           4.9272   -1.4050    0.0000 H       1  UNL1        0.2102
     22 H           8.4607    0.8799    0.0000 H       1  UNL1        0.0601
     23 H           7.6636    0.8799    0.0000 H       1  UNL1        0.0601
     24 H           1.6900    0.4419    0.0000 H       1  UNL1        0.0274
     25 H           1.4631   -0.4050    0.0000 H       1  UNL1        0.0274
     26 H           2.3100   -0.6319    0.0000 H       1  UNL1        0.0274
     27 H           3.4860    1.4050    0.0000 H       1  UNL1        0.0274
     28 H           2.8660    2.0250    0.0000 H       1  UNL1        0.0274
     29 H           2.2460    1.4050    0.0000 H       1  UNL1        0.0274
     30 H           9.4651    0.2150    0.0000 H       1  UNL1        0.2098
@<TRIPOS>BOND
     1     1     3    1
     2     1    21    1
     3     2    10    1
     4     2    30    1
     5     3     4    1
     6     3     5    1
     7     3    13    1
     8     4     6    1
     9     4    14    1
    10     4    15    1
    11     5     8    1
    12     5     9    2
    13     6     7    2
    14     6    16    1
    15     7    11    1
    16     7    12    1
    17     8    17    1
    18     8    18    1
    19     8    19    1
    20     9    10    1
    21     9    20    1
    22    10    22    1
    23    10    23    1
    24    11    24    1
    25    11    25    1
    26    11    26    1
    27    12    27    1
    28    12    28    1
    29    12    29    1
