@<TRIPOS>MOLECULE
IMPHY016293
 24 24 0 0 0
SMALL
GASTEIGER

@<TRIPOS>ATOM
      1 O           2.0000   -0.5830    0.0000 O.2     1  UNL1       -0.3007
      2 C           4.5032    0.3649    0.0000 C.3     1  UNL1       -0.0047
      3 C           3.6942   -0.2229    0.0000 C.3     1  UNL1        0.0267
      4 C           5.3122   -0.2229    0.0000 C.2     1  UNL1       -0.0702
      5 C           4.0032   -1.1739    0.0000 C.3     1  UNL1       -0.0244
      6 C           5.0032   -1.1739    0.0000 C.2     1  UNL1       -0.0838
      7 C           5.0910    1.1739    0.0000 C.3     1  UNL1       -0.0555
      8 C           3.9154    1.1739    0.0000 C.3     1  UNL1       -0.0555
      9 C           2.7431    0.0861    0.0000 C.2     1  UNL1        0.1245
     10 C           6.2633    0.0861    0.0000 C.3     1  UNL1       -0.0433
     11 H           3.2558   -0.6613    0.0000 H       1  UNL1        0.0386
     12 H           3.3968   -1.3028    0.0000 H       1  UNL1        0.0314
     13 H           4.0680   -1.7905    0.0000 H       1  UNL1        0.0314
     14 H           5.3676   -1.6755    0.0000 H       1  UNL1        0.0572
     15 H           5.5926    0.8095    0.0000 H       1  UNL1        0.0238
     16 H           5.4554    1.6755    0.0000 H       1  UNL1        0.0238
     17 H           4.5894    1.5384    0.0000 H       1  UNL1        0.0238
     18 H           4.4170    1.5384    0.0000 H       1  UNL1        0.0238
     19 H           3.5510    1.6755    0.0000 H       1  UNL1        0.0238
     20 H           3.4138    0.8095    0.0000 H       1  UNL1        0.0238
     21 H           2.6142    0.6926    0.0000 H       1  UNL1        0.1029
     22 H           6.4549   -0.5035    0.0000 H       1  UNL1        0.0275
     23 H           6.8530    0.2777    0.0000 H       1  UNL1        0.0275
     24 H           6.0717    0.6758    0.0000 H       1  UNL1        0.0275
@<TRIPOS>BOND
     1     1     9    2
     2     2     3    1
     3     2     4    1
     4     2     7    1
     5     2     8    1
     6     3     5    1
     7     3     9    1
     8     3    11    1
     9     4     6    2
    10     4    10    1
    11     5     6    1
    12     5    12    1
    13     5    13    1
    14     6    14    1
    15     7    15    1
    16     7    16    1
    17     7    17    1
    18     8    18    1
    19     8    19    1
    20     8    20    1
    21     9    21    1
    22    10    22    1
    23    10    23    1
    24    10    24    1
