@<TRIPOS>MOLECULE
IMPHY006309
 30 30 0 0 0
SMALL
GASTEIGER

@<TRIPOS>ATOM
      1 C           2.8660    0.7500    0.0000 C.3     1  UNL1       -0.0387
      2 C           2.0000    0.2500    0.0000 C.3     1  UNL1       -0.0497
      3 C           3.7320    0.2500    0.0000 C.3     1  UNL1       -0.0497
      4 C           2.8660   -1.2500    0.0000 C.3     1  UNL1       -0.0439
      5 C           3.7320   -0.7500    0.0000 C.3     1  UNL1       -0.0502
      6 C           2.0000   -0.7500    0.0000 C.3     1  UNL1       -0.0502
      7 C           2.8660    1.7500    0.0000 C.3     1  UNL1       -0.0439
      8 C           2.8660   -2.2500    0.0000 C.3     1  UNL1       -0.0624
      9 C           3.7320    2.2500    0.0000 C.3     1  UNL1       -0.0624
     10 C           2.0000    2.2500    0.0000 C.3     1  UNL1       -0.0624
     11 H           3.4030    1.0600    0.0000 H       1  UNL1        0.0303
     12 H           1.7880    0.8326    0.0000 H       1  UNL1        0.0268
     13 H           1.3894    0.1423    0.0000 H       1  UNL1        0.0268
     14 H           4.3426    0.1423    0.0000 H       1  UNL1        0.0268
     15 H           3.9441    0.8326    0.0000 H       1  UNL1        0.0268
     16 H           3.4030   -1.5600    0.0000 H       1  UNL1        0.0298
     17 H           3.9441   -1.3326    0.0000 H       1  UNL1        0.0268
     18 H           1.3894   -0.6423    0.0000 H       1  UNL1        0.0268
     19 H           1.7880   -1.3326    0.0000 H       1  UNL1        0.0268
     20 H           4.3426   -0.6423    0.0000 H       1  UNL1        0.0268
     21 H           2.8660    2.3700    0.0000 H       1  UNL1        0.0298
     22 H           2.2460   -2.2500    0.0000 H       1  UNL1        0.0232
     23 H           2.8660   -2.8700    0.0000 H       1  UNL1        0.0232
     24 H           3.4860   -2.2500    0.0000 H       1  UNL1        0.0232
     25 H           4.0420    1.7131    0.0000 H       1  UNL1        0.0232
     26 H           4.2690    2.5600    0.0000 H       1  UNL1        0.0232
     27 H           3.4220    2.7869    0.0000 H       1  UNL1        0.0232
     28 H           2.3100    2.7869    0.0000 H       1  UNL1        0.0232
     29 H           1.4631    2.5600    0.0000 H       1  UNL1        0.0232
     30 H           1.6900    1.7131    0.0000 H       1  UNL1        0.0232
@<TRIPOS>BOND
     1     1     2    1
     2     1     3    1
     3     1     7    1
     4     1    11    1
     5     2     6    1
     6     2    12    1
     7     2    13    1
     8     3     5    1
     9     3    14    1
    10     3    15    1
    11     4     5    1
    12     4     6    1
    13     4     8    1
    14     4    16    1
    15     5    17    1
    16     5    20    1
    17     6    18    1
    18     6    19    1
    19     7     9    1
    20     7    10    1
    21     7    21    1
    22     8    22    1
    23     8    23    1
    24     8    24    1
    25     9    25    1
    26     9    26    1
    27     9    27    1
    28    10    28    1
    29    10    29    1
    30    10    30    1
