@<TRIPOS>MOLECULE
IMPHY000829
 73 77 0 0 0
SMALL
GASTEIGER

@<TRIPOS>ATOM
      1 O          11.1972   -1.2857    0.0000 O.3     1  UNL1       -0.3302
      2 O          12.9292   -1.2857    0.0000 O.3     1  UNL1       -0.4532
      3 O           9.4651   -3.2857    0.0000 O.3     1  UNL1       -0.3864
      4 O          11.1972   -4.2857    0.0000 O.3     1  UNL1       -0.3864
      5 O          12.9292   -3.2857    0.0000 O.3     1  UNL1       -0.3829
      6 O           8.5991   -1.7857    0.0000 O.3     1  UNL1       -0.4589
      7 O          13.7953    1.2143    0.0000 O.2     1  UNL1       -0.4507
      8 O          11.1972   -0.2857    0.0000 O.2     1  UNL1       -0.2830
      9 O           7.7331   -0.2857    0.0000 O.2     1  UNL1       -0.2456
     10 O          10.2930    1.2112    0.0000 O.3     1  UNL1       -0.5058
     11 O          12.0511    4.2836    0.0000 O.3     1  UNL1       -0.5065
     12 O          17.2594    0.2143    0.0000 O.3     1  UNL1       -0.4914
     13 O          17.2594   -1.7857    0.0000 O.3     1  UNL1       -0.5033
     14 O           2.5369   -3.2857    0.0000 O.3     1  UNL1       -0.5068
     15 C          10.3312   -2.7857    0.0000 C.3     1  UNL1        0.1130
     16 C          11.1972   -3.2857    0.0000 C.3     1  UNL1        0.1152
     17 C          10.3312   -1.7857    0.0000 C.3     1  UNL1        0.1250
     18 C          12.0632   -2.7857    0.0000 C.3     1  UNL1        0.1454
     19 C          12.0632   -1.7857    0.0000 C.3     1  UNL1        0.2312
     20 C           9.4651   -1.2857    0.0000 C.3     1  UNL1        0.1215
     21 C          12.9292   -0.2857    0.0000 C.ar    1  UNL1        0.2138
     22 C          13.7953    0.2143    0.0000 C.ar    1  UNL1        0.1810
     23 C          12.0632    0.2143    0.0000 C.ar    1  UNL1        0.2382
     24 C          12.0632    1.2143    0.0000 C.ar    1  UNL1        0.1092
     25 C           7.7331   -1.2857    0.0000 C.2     1  UNL1        0.3320
     26 C          12.9292    1.7143    0.0000 C.ar    1  UNL1        0.1465
     27 C          14.6613   -0.2857    0.0000 C.ar    1  UNL1        0.0247
     28 C          11.1532    1.7212    0.0000 C.ar    1  UNL1        0.1348
     29 C          12.9453    2.7558    0.0000 C.ar    1  UNL1        0.0231
     30 C          15.5273    0.2143    0.0000 C.ar    1  UNL1       -0.0055
     31 C          14.6613   -1.2857    0.0000 C.ar    1  UNL1       -0.0473
     32 C           6.8671   -1.7857    0.0000 C.2     1  UNL1        0.0231
     33 C          11.1452    2.7628    0.0000 C.ar    1  UNL1        0.0223
     34 C          12.0473    3.2836    0.0000 C.ar    1  UNL1        0.1239
     35 C          16.3933   -0.2857    0.0000 C.ar    1  UNL1        0.1619
     36 C          15.5273   -1.7857    0.0000 C.ar    1  UNL1       -0.0159
     37 C          16.3933   -1.2857    0.0000 C.ar    1  UNL1        0.1585
     38 C           6.0010   -1.2857    0.0000 C.2     1  UNL1       -0.0478
     39 C           5.1350   -1.7857    0.0000 C.ar    1  UNL1       -0.0246
     40 C           4.2690   -1.2857    0.0000 C.ar    1  UNL1       -0.0511
     41 C           5.1350   -2.7857    0.0000 C.ar    1  UNL1       -0.0511
     42 C          17.2594    1.2143    0.0000 C.3     1  UNL1        0.0790
     43 C           3.4030   -1.7857    0.0000 C.ar    1  UNL1       -0.0196
     44 C           4.2690   -3.2857    0.0000 C.ar    1  UNL1       -0.0196
     45 C           3.4030   -2.7857    0.0000 C.ar    1  UNL1        0.1169
     46 H           9.7942   -2.4757    0.0000 H       1  UNL1        0.0647
     47 H          11.7341   -3.5957    0.0000 H       1  UNL1        0.0648
     48 H          10.3312   -1.1657    0.0000 H       1  UNL1        0.0658
     49 H          12.6002   -2.4757    0.0000 H       1  UNL1        0.0683
     50 H          12.0632   -1.1657    0.0000 H       1  UNL1        0.1084
     51 H           9.8637   -0.8107    0.0000 H       1  UNL1        0.0725
     52 H           9.0666   -0.8107    0.0000 H       1  UNL1        0.0725
     53 H           9.4651   -3.9057    0.0000 H       1  UNL1        0.2100
     54 H          10.6603   -4.5957    0.0000 H       1  UNL1        0.2100
     55 H          12.9292   -3.9057    0.0000 H       1  UNL1        0.2102
     56 H          13.4858    3.0596    0.0000 H       1  UNL1        0.0691
     57 H          15.5273    0.8343    0.0000 H       1  UNL1        0.0662
     58 H          14.1244   -1.5957    0.0000 H       1  UNL1        0.0626
     59 H           6.8671   -2.4057    0.0000 H       1  UNL1        0.0689
     60 H          10.6071    3.0707    0.0000 H       1  UNL1        0.0691
     61 H          15.5273   -2.4057    0.0000 H       1  UNL1        0.0655
     62 H           6.0010   -0.6657    0.0000 H       1  UNL1        0.0626
     63 H           9.7525    1.5150    0.0000 H       1  UNL1        0.2922
     64 H          11.5154    4.5957    0.0000 H       1  UNL1        0.2921
     65 H          17.2594   -2.4057    0.0000 H       1  UNL1        0.2923
     66 H           4.2690   -0.6657    0.0000 H       1  UNL1        0.0625
     67 H           5.6720   -3.0957    0.0000 H       1  UNL1        0.0625
     68 H          17.8794    1.2143    0.0000 H       1  UNL1        0.0660
     69 H          17.2594    1.8343    0.0000 H       1  UNL1        0.0660
     70 H          16.6394    1.2143    0.0000 H       1  UNL1        0.0660
     71 H           2.8660   -1.4757    0.0000 H       1  UNL1        0.0654
     72 H           4.2690   -3.9057    0.0000 H       1  UNL1        0.0654
     73 H           2.0000   -2.9757    0.0000 H       1  UNL1        0.2921
@<TRIPOS>BOND
     1     1    17    1
     2     1    19    1
     3    19     2    1
     4     2    21    1
     5    15     3    1
     6     3    53    1
     7    16     4    1
     8     4    54    1
     9    18     5    1
    10     5    55    1
    11     6    20    1
    12     6    25    1
    13     7    22   ar
    14     7    26   ar
    15     8    23    2
    16     9    25    2
    17    10    28    1
    18    10    63    1
    19    11    34    1
    20    11    64    1
    21    12    35    1
    22    12    42    1
    23    13    37    1
    24    13    65    1
    25    14    45    1
    26    14    73    1
    27    15    16    1
    28    15    17    1
    29    15    46    1
    30    16    18    1
    31    16    47    1
    32    17    20    1
    33    17    48    1
    34    18    19    1
    35    18    49    1
    36    19    50    1
    37    20    51    1
    38    20    52    1
    39    21    22   ar
    40    21    23   ar
    41    22    27    1
    42    23    24   ar
    43    24    26   ar
    44    24    28   ar
    45    25    32    1
    46    26    29   ar
    47    27    30   ar
    48    27    31   ar
    49    28    33   ar
    50    29    34   ar
    51    29    56    1
    52    30    35   ar
    53    30    57    1
    54    31    36   ar
    55    31    58    1
    56    32    38    2
    57    32    59    1
    58    33    34   ar
    59    33    60    1
    60    35    37   ar
    61    36    37   ar
    62    36    61    1
    63    38    39    1
    64    38    62    1
    65    39    40   ar
    66    39    41   ar
    67    40    43   ar
    68    40    66    1
    69    41    44   ar
    70    41    67    1
    71    42    68    1
    72    42    69    1
    73    42    70    1
    74    43    45   ar
    75    43    71    1
    76    44    45   ar
    77    44    72    1
