@<TRIPOS>MOLECULE
IMPHY010439
 50 53 0 0 0
SMALL
GASTEIGER

@<TRIPOS>ATOM
      1 O           6.4552    2.4668    0.0000 O.3     1  UNL1       -0.4677
      2 O           7.1623    1.2420    0.0000 O.2     1  UNL1       -0.2505
      3 O           2.0000    0.3182    0.0000 O.2     1  UNL1       -0.2905
      4 N           6.2862    1.0599    0.0000 N.3     1  UNL1       -0.2974
      5 N           2.7390   -1.3633    0.0000 N.ar    1  UNL1       -0.3517
      6 C           5.6131    0.3182    0.0000 C.3     1  UNL1        0.0279
      7 C           5.2304    1.2420    0.0000 C.3     1  UNL1        0.0791
      8 C           4.3066    1.6247    0.0000 C.3     1  UNL1        0.0027
      9 C           5.2304   -0.6057    0.0000 C.3     1  UNL1       -0.0085
     10 C           5.0483    2.2978    0.0000 C.2     1  UNL1       -0.0554
     11 C           6.0114    2.0230    0.0000 C.3     1  UNL1        0.0203
     12 C           3.3827    1.2420    0.0000 C.3     1  UNL1        0.0193
     13 C           4.3066   -0.9884    0.0000 C.ar    1  UNL1       -0.0101
     14 C           6.1964    1.5009    0.0000 C.2     1  UNL1        0.3121
     15 C           3.3827   -0.6057    0.0000 C.ar    1  UNL1        0.0865
     16 C           3.0000    0.3182    0.0000 C.2     1  UNL1        0.1800
     17 C           7.0158    0.3759    0.0000 C.3     1  UNL1       -0.0121
     18 C           4.2260   -1.9792    0.0000 C.ar    1  UNL1        0.0036
     19 C           4.8208    3.2716    0.0000 C.2     1  UNL1       -0.0864
     20 C           3.2592   -2.2104    0.0000 C.ar    1  UNL1        0.0472
     21 C           4.9496   -2.7199    0.0000 C.ar    1  UNL1       -0.0523
     22 C           5.5503    3.9555    0.0000 C.3     1  UNL1       -0.0465
     23 C           2.9490   -3.1983    0.0000 C.ar    1  UNL1       -0.0378
     24 C           4.6623   -3.7147    0.0000 C.ar    1  UNL1       -0.0611
     25 C           3.6553   -3.9555    0.0000 C.ar    1  UNL1       -0.0598
     26 C           7.4211    2.7256    0.0000 C.3     1  UNL1        0.0817
     27 H           6.3311   -0.1368    0.0000 H       1  UNL1        0.0474
     28 H           5.2710    1.8607    0.0000 H       1  UNL1        0.0435
     29 H           3.8516    2.3427    0.0000 H       1  UNL1        0.0359
     30 H           5.3114   -1.2204    0.0000 H       1  UNL1        0.0329
     31 H           5.8451   -0.6866    0.0000 H       1  UNL1        0.0329
     32 H           6.6288    2.0804    0.0000 H       1  UNL1        0.0473
     33 H           6.0688    2.6404    0.0000 H       1  UNL1        0.0473
     34 H           3.3018    1.8567    0.0000 H       1  UNL1        0.0352
     35 H           2.7680    1.3230    0.0000 H       1  UNL1        0.0352
     36 H           6.5918   -0.0764    0.0000 H       1  UNL1        0.0391
     37 H           7.4681   -0.0481    0.0000 H       1  UNL1        0.0391
     38 H           7.4398    0.8283    0.0000 H       1  UNL1        0.0391
     39 H           4.2274    3.4513    0.0000 H       1  UNL1        0.0569
     40 H           2.1209   -1.3157    0.0000 H       1  UNL1        0.1660
     41 H           5.5509   -2.5687    0.0000 H       1  UNL1        0.0624
     42 H           5.9744    3.5032    0.0000 H       1  UNL1        0.0272
     43 H           6.0027    4.3796    0.0000 H       1  UNL1        0.0272
     44 H           5.1263    4.4079    0.0000 H       1  UNL1        0.0272
     45 H           2.3444   -3.3356    0.0000 H       1  UNL1        0.0638
     46 H           5.0904   -4.1631    0.0000 H       1  UNL1        0.0618
     47 H           3.4764   -4.5492    0.0000 H       1  UNL1        0.0618
     48 H           7.5816    2.1267    0.0000 H       1  UNL1        0.0661
     49 H           8.0200    2.8861    0.0000 H       1  UNL1        0.0661
     50 H           7.2606    3.3245    0.0000 H       1  UNL1        0.0661
@<TRIPOS>BOND
     1     1    14    1
     2     1    26    1
     3     2    14    2
     4     3    16    2
     5     4     6    1
     6     4    11    1
     7     4    17    1
     8     5    15   ar
     9     5    20   ar
    10     5    40    1
    11     6     7    1
    12     6     9    1
    13     6    27    1
    14     7     8    1
    15     7    14    1
    16     7    28    1
    17     8    10    1
    18     8    12    1
    19     8    29    1
    20     9    13    1
    21     9    30    1
    22     9    31    1
    23    10    11    1
    24    10    19    2
    25    11    32    1
    26    11    33    1
    27    12    16    1
    28    12    34    1
    29    12    35    1
    30    13    15   ar
    31    13    18   ar
    32    15    16    1
    33    17    36    1
    34    17    37    1
    35    17    38    1
    36    18    20   ar
    37    18    21   ar
    38    19    22    1
    39    19    39    1
    40    20    23   ar
    41    21    24   ar
    42    21    41    1
    43    22    42    1
    44    22    43    1
    45    22    44    1
    46    23    25   ar
    47    23    45    1
    48    24    25   ar
    49    24    46    1
    50    25    47    1
    51    26    48    1
    52    26    49    1
    53    26    50    1
