@<TRIPOS>MOLECULE
IMPHY003214
 38 40 0 0 0
SMALL
GASTEIGER

@<TRIPOS>ATOM
      1 O           7.1962    0.0000    0.0000 O.3     1  UNL1       -0.3816
      2 O           7.1962   -2.0000    0.0000 O.2     1  UNL1       -0.2724
      3 N           5.4641   -2.0000    0.0000 N.am    1  UNL1       -0.2786
      4 C           5.4641    0.0000    0.0000 C.3     1  UNL1        0.0454
      5 C           6.3301   -0.5000    0.0000 C.3     1  UNL1        0.1421
      6 C           4.5981   -0.5000    0.0000 C.2     1  UNL1       -0.0159
      7 C           5.4641    1.0000    0.0000 C.ar    1  UNL1       -0.0370
      8 C           6.3301   -1.5000    0.0000 C.2     1  UNL1        0.2487
      9 C           4.5981   -1.5000    0.0000 C.2     1  UNL1        0.0034
     10 C           3.7320    0.0000    0.0000 C.ar    1  UNL1       -0.0200
     11 C           6.3301    1.5000    0.0000 C.ar    1  UNL1       -0.0579
     12 C           4.5981    1.5000    0.0000 C.ar    1  UNL1       -0.0579
     13 C           5.4641   -3.0000    0.0000 C.3     1  UNL1        0.0078
     14 C           3.7320    1.0000    0.0000 C.ar    1  UNL1       -0.0543
     15 C           2.8660   -0.5000    0.0000 C.ar    1  UNL1       -0.0543
     16 C           6.3301    2.5000    0.0000 C.ar    1  UNL1       -0.0615
     17 C           4.5981    2.5000    0.0000 C.ar    1  UNL1       -0.0615
     18 C           5.4641    3.0000    0.0000 C.ar    1  UNL1       -0.0617
     19 C           2.8660    1.5000    0.0000 C.ar    1  UNL1       -0.0612
     20 C           2.0000    0.0000    0.0000 C.ar    1  UNL1       -0.0612
     21 C           2.0000    1.0000    0.0000 C.ar    1  UNL1       -0.0617
     22 H           6.0010    0.3100    0.0000 H       1  UNL1        0.0428
     23 H           6.8671   -0.8100    0.0000 H       1  UNL1        0.0700
     24 H           4.0611   -1.8100    0.0000 H       1  UNL1        0.0787
     25 H           6.8671    1.1900    0.0000 H       1  UNL1        0.0620
     26 H           4.0611    1.1900    0.0000 H       1  UNL1        0.0620
     27 H           4.8441   -3.0000    0.0000 H       1  UNL1        0.0432
     28 H           5.4641   -3.6200    0.0000 H       1  UNL1        0.0432
     29 H           6.0841   -3.0000    0.0000 H       1  UNL1        0.0432
     30 H           7.7331   -0.3100    0.0000 H       1  UNL1        0.2105
     31 H           4.2690    1.3100    0.0000 H       1  UNL1        0.0624
     32 H           2.8660   -1.1200    0.0000 H       1  UNL1        0.0624
     33 H           6.8671    2.8100    0.0000 H       1  UNL1        0.0618
     34 H           4.0611    2.8100    0.0000 H       1  UNL1        0.0618
     35 H           5.4641    3.6200    0.0000 H       1  UNL1        0.0618
     36 H           2.8660    2.1200    0.0000 H       1  UNL1        0.0618
     37 H           1.4631   -0.3100    0.0000 H       1  UNL1        0.0618
     38 H           1.4631    1.3100    0.0000 H       1  UNL1        0.0618
@<TRIPOS>BOND
     1     5     1    1
     2     1    30    1
     3     2     8    2
     4     3     8   am
     5     3     9    1
     6     3    13    1
     7     4     5    1
     8     4     6    1
     9     4     7    1
    10     4    22    1
    11     5     8    1
    12     5    23    1
    13     6     9    2
    14     6    10    1
    15     7    11   ar
    16     7    12   ar
    17     9    24    1
    18    10    14   ar
    19    10    15   ar
    20    11    16   ar
    21    11    25    1
    22    12    17   ar
    23    12    26    1
    24    13    27    1
    25    13    28    1
    26    13    29    1
    27    14    19   ar
    28    14    31    1
    29    15    20   ar
    30    15    32    1
    31    16    18   ar
    32    16    33    1
    33    17    18   ar
    34    17    34    1
    35    18    35    1
    36    19    21   ar
    37    19    36    1
    38    20    21   ar
    39    20    37    1
    40    21    38    1
