@<TRIPOS>MOLECULE
IMPHY002445
 72 76 0 0 0
SMALL
GASTEIGER

@<TRIPOS>ATOM
      1 O           6.0580    0.9315    0.0000 O.3     1  UNL1       -0.3712
      2 O           8.9765    1.8798    0.0000 O.3     1  UNL1       -0.3712
      3 O           6.8671   -3.6563    0.0000 O.3     1  UNL1       -0.4572
      4 O           5.1350   -3.6563    0.0000 O.3     1  UNL1       -0.3313
      5 O           5.1350   -2.6563    0.0000 O.3     1  UNL1       -0.4914
      6 O           9.9100    5.4618    0.0000 O.3     1  UNL1       -0.4914
      7 O           6.8671   -5.6563    0.0000 O.3     1  UNL1       -0.3829
      8 O           5.1350   -6.6563    0.0000 O.3     1  UNL1       -0.3864
      9 O           3.4030   -5.6563    0.0000 O.3     1  UNL1       -0.3865
     10 O           8.1797    6.4648    0.0000 O.3     1  UNL1       -0.4915
     11 O           2.5369   -4.1563    0.0000 O.3     1  UNL1       -0.3924
     12 C           7.6761    0.9315    0.0000 C.3     1  UNL1        0.0205
     13 C           7.3671    1.8826    0.0000 C.3     1  UNL1        0.0205
     14 C           6.8671    0.3437    0.0000 C.3     1  UNL1        0.0891
     15 C           8.1728    2.4648    0.0000 C.3     1  UNL1        0.0891
     16 C           6.3671    1.8826    0.0000 C.3     1  UNL1        0.0544
     17 C           8.6702    0.9341    0.0000 C.3     1  UNL1        0.0544
     18 C           6.8671   -0.6563    0.0000 C.ar    1  UNL1       -0.0149
     19 C           8.1745    3.4648    0.0000 C.ar    1  UNL1       -0.0149
     20 C           6.0010   -1.1563    0.0000 C.ar    1  UNL1       -0.0107
     21 C           7.7331   -1.1563    0.0000 C.ar    1  UNL1       -0.0524
     22 C           9.0414    3.9633    0.0000 C.ar    1  UNL1       -0.0107
     23 C           7.3094    3.9663    0.0000 C.ar    1  UNL1       -0.0524
     24 C           6.0010   -2.1563    0.0000 C.ar    1  UNL1        0.1620
     25 C           7.7331   -2.1563    0.0000 C.ar    1  UNL1       -0.0158
     26 C           6.8671   -2.6563    0.0000 C.ar    1  UNL1        0.1654
     27 C           6.0010   -4.1563    0.0000 C.3     1  UNL1        0.2310
     28 C           6.0010   -5.1563    0.0000 C.3     1  UNL1        0.1454
     29 C           5.1350   -5.6563    0.0000 C.3     1  UNL1        0.1152
     30 C           4.2690   -5.1563    0.0000 C.3     1  UNL1        0.1120
     31 C           9.0432    4.9633    0.0000 C.ar    1  UNL1        0.1618
     32 C           4.2690   -4.1563    0.0000 C.3     1  UNL1        0.1140
     33 C           7.3111    4.9663    0.0000 C.ar    1  UNL1       -0.0160
     34 C           8.1780    5.4648    0.0000 C.ar    1  UNL1        0.1615
     35 C           3.4030   -3.6563    0.0000 C.3     1  UNL1        0.0731
     36 C           4.2690   -2.1563    0.0000 C.3     1  UNL1        0.0790
     37 C          10.7752    4.9603    0.0000 C.3     1  UNL1        0.0790
     38 C           7.3146    6.9663    0.0000 C.3     1  UNL1        0.0790
     39 H           7.9398    0.1235    0.0000 H       1  UNL1        0.0356
     40 H           7.1054    2.6913    0.0000 H       1  UNL1        0.0356
     41 H           6.3146    0.0623    0.0000 H       1  UNL1        0.0650
     42 H           8.7256    2.7455    0.0000 H       1  UNL1        0.0650
     43 H           6.4319    2.4992    0.0000 H       1  UNL1        0.0564
     44 H           5.7606    2.0115    0.0000 H       1  UNL1        0.0564
     45 H           8.6066    0.3174    0.0000 H       1  UNL1        0.0564
     46 H           9.2768    0.8061    0.0000 H       1  UNL1        0.0564
     47 H           5.4641   -0.8463    0.0000 H       1  UNL1        0.0659
     48 H           8.2700   -0.8463    0.0000 H       1  UNL1        0.0622
     49 H           9.5778    3.6524    0.0000 H       1  UNL1        0.0659
     50 H           6.7719    3.6572    0.0000 H       1  UNL1        0.0622
     51 H           8.2700   -2.4663    0.0000 H       1  UNL1        0.0655
     52 H           6.0010   -5.7763    0.0000 H       1  UNL1        0.0683
     53 H           6.5380   -4.4663    0.0000 H       1  UNL1        0.1084
     54 H           4.5981   -5.9663    0.0000 H       1  UNL1        0.0648
     55 H           3.7320   -4.8463    0.0000 H       1  UNL1        0.0647
     56 H           4.2690   -3.5363    0.0000 H       1  UNL1        0.0647
     57 H           6.7747    5.2772    0.0000 H       1  UNL1        0.0655
     58 H           3.8015   -3.1813    0.0000 H       1  UNL1        0.0584
     59 H           3.0044   -3.1813    0.0000 H       1  UNL1        0.0584
     60 H           7.4040   -5.3463    0.0000 H       1  UNL1        0.2102
     61 H           5.6720   -6.9663    0.0000 H       1  UNL1        0.2100
     62 H           3.4030   -6.2763    0.0000 H       1  UNL1        0.2100
     63 H           4.5790   -1.6193    0.0000 H       1  UNL1        0.0660
     64 H           3.7320   -1.8463    0.0000 H       1  UNL1        0.0660
     65 H           3.9590   -2.6932    0.0000 H       1  UNL1        0.0660
     66 H           2.0000   -3.8463    0.0000 H       1  UNL1        0.2095
     67 H          10.4643    4.4239    0.0000 H       1  UNL1        0.0660
     68 H          11.3116    4.6494    0.0000 H       1  UNL1        0.0660
     69 H          11.0861    5.4967    0.0000 H       1  UNL1        0.0660
     70 H           7.6255    7.5027    0.0000 H       1  UNL1        0.0660
     71 H           6.7782    7.2772    0.0000 H       1  UNL1        0.0660
     72 H           7.0036    6.4299    0.0000 H       1  UNL1        0.0660
@<TRIPOS>BOND
     1     1    14    1
     2     1    16    1
     3     2    15    1
     4     2    17    1
     5     3    26    1
     6    27     3    1
     7     4    27    1
     8     4    32    1
     9     5    24    1
    10     5    36    1
    11     6    31    1
    12     6    37    1
    13    28     7    1
    14     7    60    1
    15    29     8    1
    16     8    61    1
    17    30     9    1
    18     9    62    1
    19    10    34    1
    20    10    38    1
    21    11    35    1
    22    11    66    1
    23    12    13    1
    24    12    14    1
    25    12    17    1
    26    12    39    1
    27    13    15    1
    28    13    16    1
    29    13    40    1
    30    14    18    1
    31    14    41    1
    32    15    19    1
    33    15    42    1
    34    16    43    1
    35    16    44    1
    36    17    45    1
    37    17    46    1
    38    18    20   ar
    39    18    21   ar
    40    19    22   ar
    41    19    23   ar
    42    20    24   ar
    43    20    47    1
    44    21    25   ar
    45    21    48    1
    46    22    31   ar
    47    22    49    1
    48    23    33   ar
    49    23    50    1
    50    24    26   ar
    51    25    26   ar
    52    25    51    1
    53    27    28    1
    54    27    53    1
    55    28    29    1
    56    28    52    1
    57    29    30    1
    58    29    54    1
    59    30    32    1
    60    30    55    1
    61    31    34   ar
    62    32    35    1
    63    32    56    1
    64    33    34   ar
    65    33    57    1
    66    35    58    1
    67    35    59    1
    68    36    63    1
    69    36    64    1
    70    36    65    1
    71    37    67    1
    72    37    68    1
    73    37    69    1
    74    38    70    1
    75    38    71    1
    76    38    72    1
