@<TRIPOS>MOLECULE
IMPHY002789
 86 88 0 0 0
SMALL
GASTEIGER

@<TRIPOS>ATOM
      1 O           9.4641    2.3354    0.0000 O.3     1  UNL1       -0.3842
      2 O           8.9250   -1.1122    0.0000 O.3     1  UNL1       -0.4569
      3 O           9.1712    3.0425    0.0000 O.3     1  UNL1       -0.4580
      4 O           5.8660   -0.8967    0.0000 O.3     1  UNL1       -0.4570
      5 O           3.5000    1.4694    0.0000 O.3     1  UNL1       -0.4605
      6 O          10.6198   -1.4694    0.0000 O.2     1  UNL1       -0.2450
      7 O           8.7229    4.7155    0.0000 O.2     1  UNL1       -0.2512
      8 O           4.1340   -0.8967    0.0000 O.2     1  UNL1       -0.2511
      9 O           3.5000   -0.2627    0.0000 O.2     1  UNL1       -0.2512
     10 C           8.9641    1.4694    0.0000 C.3     1  UNL1        0.1132
     11 C           8.4641    0.6033    0.0000 C.3     1  UNL1        0.0472
     12 C          10.0390    0.2714    0.0000 C.3     1  UNL1       -0.0033
     13 C           9.9359    1.2602    0.0000 C.3     1  UNL1       -0.0138
     14 C           9.1312   -0.1337    0.0000 C.3     1  UNL1        0.1150
     15 C           8.4641    2.3354    0.0000 C.3     1  UNL1        0.1381
     16 C           7.5981    2.8354    0.0000 C.3     1  UNL1        0.0142
     17 C           7.5981    0.1033    0.0000 C.2     1  UNL1       -0.0722
     18 C          10.9050   -0.2286    0.0000 C.3     1  UNL1       -0.0589
     19 C           6.7320    0.6033    0.0000 C.2     1  UNL1       -0.0360
     20 C           6.7320    2.3354    0.0000 C.2     1  UNL1       -0.0809
     21 C           7.5981    3.8354    0.0000 C.3     1  UNL1       -0.0555
     22 C           5.8660    0.1033    0.0000 C.3     1  UNL1        0.1273
     23 C           5.0000    2.3354    0.0000 C.3     1  UNL1        0.0203
     24 C           4.5000    1.4694    0.0000 C.3     1  UNL1        0.1152
     25 C           5.0000    0.6033    0.0000 C.3     1  UNL1        0.0263
     26 C           5.8660    2.8354    0.0000 C.2     1  UNL1       -0.0784
     27 C           9.6693   -1.7800    0.0000 C.2     1  UNL1        0.3395
     28 C           5.9660    1.2461    0.0000 C.3     1  UNL1       -0.0403
     29 C           9.4300    4.0084    0.0000 C.2     1  UNL1        0.3043
     30 C           4.0152    2.5090    0.0000 C.3     1  UNL1       -0.0530
     31 C           4.5000    3.2014    0.0000 C.3     1  UNL1       -0.0530
     32 C           9.4631   -2.7585    0.0000 C.ar    1  UNL1        0.0590
     33 C          10.3960    4.2672    0.0000 C.3     1  UNL1        0.0332
     34 C           5.0000   -1.3966    0.0000 C.2     1  UNL1        0.3045
     35 C           8.5125   -3.0692    0.0000 C.ar    1  UNL1       -0.0478
     36 C          10.2074   -3.4264    0.0000 C.ar    1  UNL1       -0.0478
     37 C           3.0000    0.6033    0.0000 C.2     1  UNL1        0.3042
     38 C           5.0000   -2.3966    0.0000 C.3     1  UNL1        0.0333
     39 C           8.3063   -4.0477    0.0000 C.ar    1  UNL1       -0.0610
     40 C          10.0011   -4.4049    0.0000 C.ar    1  UNL1       -0.0610
     41 C           2.0000    0.6033    0.0000 C.3     1  UNL1        0.0332
     42 C           9.0506   -4.7155    0.0000 C.ar    1  UNL1       -0.0617
     43 H           8.3322   -0.2364    0.0000 H       1  UNL1        0.0408
     44 H          10.0068   -0.3477    0.0000 H       1  UNL1        0.0335
     45 H          10.5559    1.2593    0.0000 H       1  UNL1        0.0298
     46 H          10.0020    1.8766    0.0000 H       1  UNL1        0.0298
     47 H           9.6135   -0.5232    0.0000 H       1  UNL1        0.0743
     48 H           8.3832    2.9501    0.0000 H       1  UNL1        0.0769
     49 H           7.0611    3.1454    0.0000 H       1  UNL1        0.0377
     50 H           7.5981   -0.5167    0.0000 H       1  UNL1        0.0578
     51 H          10.5950   -0.7655    0.0000 H       1  UNL1        0.0234
     52 H          11.4419   -0.5386    0.0000 H       1  UNL1        0.0234
     53 H          11.2150    0.3084    0.0000 H       1  UNL1        0.0234
     54 H          10.0841    2.3354    0.0000 H       1  UNL1        0.2103
     55 H           6.3336    1.8604    0.0000 H       1  UNL1        0.0573
     56 H           8.2181    3.8354    0.0000 H       1  UNL1        0.0237
     57 H           7.5981    4.4554    0.0000 H       1  UNL1        0.0237
     58 H           6.9781    3.8354    0.0000 H       1  UNL1        0.0237
     59 H           6.4030   -0.2067    0.0000 H       1  UNL1        0.0783
     60 H           4.1900    2.0063    0.0000 H       1  UNL1        0.0744
     61 H           4.3894    0.4957    0.0000 H       1  UNL1        0.0340
     62 H           5.4384    1.0418    0.0000 H       1  UNL1        0.0340
     63 H           5.8660    3.4554    0.0000 H       1  UNL1        0.0576
     64 H           6.3645    1.7211    0.0000 H       1  UNL1        0.0276
     65 H           5.4911    1.6447    0.0000 H       1  UNL1        0.0276
     66 H           5.5675    0.7712    0.0000 H       1  UNL1        0.0276
     67 H           5.0369    3.5114    0.0000 H       1  UNL1        0.0239
     68 H           4.1900    3.7384    0.0000 H       1  UNL1        0.0239
     69 H           3.9631    2.8914    0.0000 H       1  UNL1        0.0239
     70 H           4.1228    3.1196    0.0000 H       1  UNL1        0.0239
     71 H           3.4046    2.6167    0.0000 H       1  UNL1        0.0239
     72 H           3.9075    1.8985    0.0000 H       1  UNL1        0.0239
     73 H          10.5564    3.6684    0.0000 H       1  UNL1        0.0342
     74 H          10.9948    4.4277    0.0000 H       1  UNL1        0.0342
     75 H          10.2355    4.8661    0.0000 H       1  UNL1        0.0342
     76 H           8.0511   -2.6551    0.0000 H       1  UNL1        0.0626
     77 H          10.7967   -3.2338    0.0000 H       1  UNL1        0.0626
     78 H           4.3800   -2.3966    0.0000 H       1  UNL1        0.0342
     79 H           5.0000   -3.0166    0.0000 H       1  UNL1        0.0342
     80 H           5.6200   -2.3966    0.0000 H       1  UNL1        0.0342
     81 H           7.7170   -4.2403    0.0000 H       1  UNL1        0.0618
     82 H          10.4626   -4.8189    0.0000 H       1  UNL1        0.0618
     83 H           2.0000    1.2234    0.0000 H       1  UNL1        0.0342
     84 H           1.3800    0.6033    0.0000 H       1  UNL1        0.0342
     85 H           2.0000   -0.0167    0.0000 H       1  UNL1        0.0342
     86 H           8.9228   -5.3222    0.0000 H       1  UNL1        0.0618
@<TRIPOS>BOND
     1    10     1    1
     2     1    54    1
     3    14     2    1
     4     2    27    1
     5    15     3    1
     6     3    29    1
     7    22     4    1
     8     4    34    1
     9    24     5    1
    10     5    37    1
    11     6    27    2
    12     7    29    2
    13     8    34    2
    14     9    37    2
    15    10    11    1
    16    10    13    1
    17    10    15    1
    18    11    14    1
    19    11    17    1
    20    11    43    1
    21    12    13    1
    22    12    14    1
    23    12    18    1
    24    12    44    1
    25    13    45    1
    26    13    46    1
    27    14    47    1
    28    15    16    1
    29    15    48    1
    30    16    20    1
    31    16    21    1
    32    16    49    1
    33    17    19    2
    34    17    50    1
    35    18    51    1
    36    18    52    1
    37    18    53    1
    38    19    22    1
    39    19    28    1
    40    20    26    2
    41    20    55    1
    42    21    56    1
    43    21    57    1
    44    21    58    1
    45    22    25    1
    46    22    59    1
    47    23    24    1
    48    23    26    1
    49    23    30    1
    50    23    31    1
    51    24    25    1
    52    24    60    1
    53    25    61    1
    54    25    62    1
    55    26    63    1
    56    27    32    1
    57    28    64    1
    58    28    65    1
    59    28    66    1
    60    29    33    1
    61    30    70    1
    62    30    71    1
    63    30    72    1
    64    31    67    1
    65    31    68    1
    66    31    69    1
    67    32    35   ar
    68    32    36   ar
    69    33    73    1
    70    33    74    1
    71    33    75    1
    72    34    38    1
    73    35    39   ar
    74    35    76    1
    75    36    40   ar
    76    36    77    1
    77    37    41    1
    78    38    78    1
    79    38    79    1
    80    38    80    1
    81    39    42   ar
    82    39    81    1
    83    40    42   ar
    84    40    82    1
    85    41    83    1
    86    41    84    1
    87    41    85    1
    88    42    86    1
