@<TRIPOS>MOLECULE
IMPHY014396
 52 55 0 0 0
SMALL
GASTEIGER

@<TRIPOS>ATOM
      1 O           5.1350   -1.2857    0.0000 O.3     1  UNL1       -0.3313
      2 O           6.8671   -1.2857    0.0000 O.3     1  UNL1       -0.4532
      3 O           5.1350   -4.2857    0.0000 O.3     1  UNL1       -0.3864
      4 O           3.4030   -3.2857    0.0000 O.3     1  UNL1       -0.3865
      5 O           6.8671   -3.2857    0.0000 O.3     1  UNL1       -0.3829
      6 O           2.5369   -1.7857    0.0000 O.3     1  UNL1       -0.3924
      7 O           7.7331    1.2143    0.0000 O.2     1  UNL1       -0.4507
      8 O           5.1350   -0.2857    0.0000 O.2     1  UNL1       -0.2830
      9 O           4.2308    1.2112    0.0000 O.3     1  UNL1       -0.5058
     10 O           5.9889    4.2836    0.0000 O.3     1  UNL1       -0.5065
     11 O          11.1972    0.2143    0.0000 O.3     1  UNL1       -0.5073
     12 O          11.1972   -1.7857    0.0000 O.co2   1  UNL1       -0.8713
     13 C           5.1350   -3.2857    0.0000 C.3     1  UNL1        0.1152
     14 C           4.2690   -2.7857    0.0000 C.3     1  UNL1        0.1120
     15 C           6.0010   -2.7857    0.0000 C.3     1  UNL1        0.1454
     16 C           4.2690   -1.7857    0.0000 C.3     1  UNL1        0.1140
     17 C           6.0010   -1.7857    0.0000 C.3     1  UNL1        0.2311
     18 C           3.4030   -1.2857    0.0000 C.3     1  UNL1        0.0731
     19 C           6.8671   -0.2857    0.0000 C.ar    1  UNL1        0.2138
     20 C           7.7331    0.2143    0.0000 C.ar    1  UNL1        0.1810
     21 C           6.0010    0.2143    0.0000 C.ar    1  UNL1        0.2382
     22 C           6.0010    1.2143    0.0000 C.ar    1  UNL1        0.1092
     23 C           6.8671    1.7143    0.0000 C.ar    1  UNL1        0.1465
     24 C           8.5991   -0.2857    0.0000 C.ar    1  UNL1        0.0245
     25 C           5.0910    1.7212    0.0000 C.ar    1  UNL1        0.1348
     26 C           6.8831    2.7558    0.0000 C.ar    1  UNL1        0.0231
     27 C           9.4651    0.2143    0.0000 C.ar    1  UNL1       -0.0100
     28 C           8.5991   -1.2857    0.0000 C.ar    1  UNL1       -0.0513
     29 C           5.0830    2.7628    0.0000 C.ar    1  UNL1        0.0223
     30 C           5.9851    3.2836    0.0000 C.ar    1  UNL1        0.1239
     31 C          10.3312   -0.2857    0.0000 C.ar    1  UNL1        0.1099
     32 C           9.4651   -1.7857    0.0000 C.ar    1  UNL1       -0.0654
     33 C          10.3312   -1.2857    0.0000 C.ar    1  UNL1       -0.0656
     34 H           4.5981   -3.5957    0.0000 H       1  UNL1        0.0648
     35 H           4.2690   -3.4057    0.0000 H       1  UNL1        0.0647
     36 H           6.0010   -3.4057    0.0000 H       1  UNL1        0.0683
     37 H           4.2690   -1.1657    0.0000 H       1  UNL1        0.0647
     38 H           6.0010   -1.1657    0.0000 H       1  UNL1        0.1084
     39 H           3.8015   -0.8107    0.0000 H       1  UNL1        0.0584
     40 H           3.0044   -0.8107    0.0000 H       1  UNL1        0.0584
     41 H           4.5981   -4.5957    0.0000 H       1  UNL1        0.2100
     42 H           3.4030   -3.9057    0.0000 H       1  UNL1        0.2100
     43 H           6.8671   -3.9057    0.0000 H       1  UNL1        0.2102
     44 H           2.0000   -1.4757    0.0000 H       1  UNL1        0.2095
     45 H           7.4236    3.0596    0.0000 H       1  UNL1        0.0691
     46 H           9.4651    0.8343    0.0000 H       1  UNL1        0.0661
     47 H           8.0622   -1.5957    0.0000 H       1  UNL1        0.0624
     48 H           4.5449    3.0707    0.0000 H       1  UNL1        0.0691
     49 H           9.4651   -2.4057    0.0000 H       1  UNL1        0.0613
     50 H           3.6904    1.5150    0.0000 H       1  UNL1        0.2922
     51 H           5.4532    4.5957    0.0000 H       1  UNL1        0.2921
     52 H          11.1972    0.8343    0.0000 H       1  UNL1        0.2921
@<TRIPOS>UNITY_ATOM_ATTR
12 1
charge -1
@<TRIPOS>BOND
     1     1    16    1
     2     1    17    1
     3    17     2    1
     4     2    19    1
     5    13     3    1
     6     3    41    1
     7    14     4    1
     8     4    42    1
     9    15     5    1
    10     5    43    1
    11     6    18    1
    12     6    44    1
    13     7    20   ar
    14     7    23   ar
    15     8    21    2
    16     9    25    1
    17     9    50    1
    18    10    30    1
    19    10    51    1
    20    11    31    1
    21    11    52    1
    22    12    33    1
    23    13    14    1
    24    13    15    1
    25    13    34    1
    26    14    16    1
    27    14    35    1
    28    15    17    1
    29    15    36    1
    30    16    18    1
    31    16    37    1
    32    17    38    1
    33    18    39    1
    34    18    40    1
    35    19    20   ar
    36    19    21   ar
    37    20    24    1
    38    21    22   ar
    39    22    23   ar
    40    22    25   ar
    41    23    26   ar
    42    24    27   ar
    43    24    28   ar
    44    25    29   ar
    45    26    30   ar
    46    26    45    1
    47    27    31   ar
    48    27    46    1
    49    28    32   ar
    50    28    47    1
    51    29    30   ar
    52    29    48    1
    53    31    33   ar
    54    32    33   ar
    55    32    49    1
