@<TRIPOS>MOLECULE
IMPHY006413
 69 71 0 0 0
SMALL
GASTEIGER

@<TRIPOS>ATOM
      1 O           9.5000   -2.5096    0.0000 O.3     1  UNL1       -0.4485
      2 O           3.5000   -2.5096    0.0000 O.2     1  UNL1       -0.2708
      3 O           6.5000   -0.7776    0.0000 O.3     1  UNL1       -0.4907
      4 O           8.6428   -0.8775    0.0000 O.3     1  UNL1       -0.4885
      5 O           5.9392   -0.0704    0.0000 O.2     1  UNL1       -0.2708
      6 O          11.7321   -1.6436    0.0000 O.3     1  UNL1       -0.5033
      7 N           2.7412    2.7864    0.0000 N.3     1  UNL1       -0.3159
      8 N           3.5000   -0.7776    0.0000 N.am    1  UNL1       -0.3118
      9 N           5.9392    1.6616    0.0000 N.am    1  UNL1       -0.3118
     10 C           2.5000    0.9545    0.0000 C.3     1  UNL1       -0.0390
     11 C           2.2412    1.9204    0.0000 C.3     1  UNL1       -0.0041
     12 C           2.0000    0.0885    0.0000 C.3     1  UNL1       -0.0362
     13 C           3.6072    2.2864    0.0000 C.3     1  UNL1       -0.0027
     14 C           4.4732    2.7864    0.0000 C.3     1  UNL1       -0.0248
     15 C           2.5000   -0.7776    0.0000 C.3     1  UNL1        0.0119
     16 C           4.9732    1.9204    0.0000 C.3     1  UNL1        0.0130
     17 C           4.0000   -1.6436    0.0000 C.2     1  UNL1        0.2369
     18 C           6.4392    0.7956    0.0000 C.2     1  UNL1        0.2369
     19 C           6.5000   -2.5096    0.0000 C.ar    1  UNL1        0.0207
     20 C           5.0000   -1.6436    0.0000 C.2     1  UNL1        0.0008
     21 C           7.0000   -1.6436    0.0000 C.ar    1  UNL1        0.1723
     22 C           5.5000   -2.5096    0.0000 C.2     1  UNL1       -0.0461
     23 C           8.5000   -2.5096    0.0000 C.ar    1  UNL1        0.1737
     24 C           8.0000   -1.6436    0.0000 C.ar    1  UNL1        0.2047
     25 C           6.9966   -3.3853    0.0000 C.ar    1  UNL1       -0.0474
     26 C           7.4392    0.7956    0.0000 C.2     1  UNL1        0.0007
     27 C           8.0034   -3.3853    0.0000 C.ar    1  UNL1       -0.0149
     28 C           9.1340   -0.1436    0.0000 C.ar    1  UNL1       -0.0212
     29 C          10.0000   -1.6436    0.0000 C.ar    1  UNL1        0.1703
     30 C           8.1340   -0.1436    0.0000 C.2     1  UNL1       -0.0496
     31 C           9.1340   -1.1436    0.0000 C.ar    1  UNL1       -0.0085
     32 C          10.8660   -1.1436    0.0000 C.ar    1  UNL1        0.1591
     33 C          10.0000    0.3564    0.0000 C.ar    1  UNL1       -0.0509
     34 C          10.8660   -0.1436    0.0000 C.ar    1  UNL1       -0.0159
     35 C           7.0000    0.0885    0.0000 C.3     1  UNL1        0.0790
     36 C           9.6276   -0.7039    0.0000 C.3     1  UNL1        0.0791
     37 H           2.9384    0.5161    0.0000 H       1  UNL1        0.0278
     38 H           3.0369    1.2645    0.0000 H       1  UNL1        0.0278
     39 H           1.8028    2.3588    0.0000 H       1  UNL1        0.0424
     40 H           1.7042    1.6104    0.0000 H       1  UNL1        0.0424
     41 H           1.5250    0.4870    0.0000 H       1  UNL1        0.0281
     42 H           1.5250   -0.3101    0.0000 H       1  UNL1        0.0281
     43 H           3.2087    1.8115    0.0000 H       1  UNL1        0.0424
     44 H           4.0057    1.8115    0.0000 H       1  UNL1        0.0424
     45 H           2.5807    3.3853    0.0000 H       1  UNL1        0.1219
     46 H           5.0102    3.0964    0.0000 H       1  UNL1        0.0293
     47 H           4.1632    3.3234    0.0000 H       1  UNL1        0.0293
     48 H           1.9174   -0.9896    0.0000 H       1  UNL1        0.0462
     49 H           2.6077   -1.3881    0.0000 H       1  UNL1        0.0462
     50 H           4.3744    1.7600    0.0000 H       1  UNL1        0.0462
     51 H           4.9732    1.3004    0.0000 H       1  UNL1        0.0462
     52 H           3.8100   -0.2406    0.0000 H       1  UNL1        0.1490
     53 H           6.3166    2.1535    0.0000 H       1  UNL1        0.1490
     54 H           5.3100   -1.1066    0.0000 H       1  UNL1        0.0669
     55 H           5.1900   -3.0465    0.0000 H       1  UNL1        0.0626
     56 H           6.6846   -3.9211    0.0000 H       1  UNL1        0.0626
     57 H           7.6308    1.3852    0.0000 H       1  UNL1        0.0669
     58 H           8.3154   -3.9211    0.0000 H       1  UNL1        0.0656
     59 H           7.8429   -0.6910    0.0000 H       1  UNL1        0.0625
     60 H           8.5970   -1.4536    0.0000 H       1  UNL1        0.0661
     61 H          10.0000    0.9764    0.0000 H       1  UNL1        0.0625
     62 H          11.4030    0.1664    0.0000 H       1  UNL1        0.0655
     63 H           7.5369   -0.2215    0.0000 H       1  UNL1        0.0660
     64 H           7.3100    0.6254    0.0000 H       1  UNL1        0.0660
     65 H           6.4631    0.3985    0.0000 H       1  UNL1        0.0660
     66 H           9.7353   -1.3145    0.0000 H       1  UNL1        0.0660
     67 H          10.2382   -0.5962    0.0000 H       1  UNL1        0.0660
     68 H           9.5199   -0.0933    0.0000 H       1  UNL1        0.0660
     69 H          12.2690   -1.3336    0.0000 H       1  UNL1        0.2923
@<TRIPOS>BOND
     1     1    23    1
     2     1    29    1
     3     2    17    2
     4     3    21    1
     5     3    35    1
     6     4    24    1
     7     4    36    1
     8     5    18    2
     9     6    32    1
    10     6    69    1
    11     7    11    1
    12     7    13    1
    13     7    45    1
    14     8    15    1
    15     8    17   am
    16     8    52    1
    17     9    16    1
    18     9    18   am
    19     9    53    1
    20    10    11    1
    21    10    12    1
    22    10    37    1
    23    10    38    1
    24    11    39    1
    25    11    40    1
    26    12    15    1
    27    12    41    1
    28    12    42    1
    29    13    14    1
    30    13    43    1
    31    13    44    1
    32    14    16    1
    33    14    46    1
    34    14    47    1
    35    15    48    1
    36    15    49    1
    37    16    50    1
    38    16    51    1
    39    17    20    1
    40    18    26    1
    41    19    21   ar
    42    19    22    1
    43    19    25   ar
    44    20    22    2
    45    20    54    1
    46    21    24   ar
    47    22    55    1
    48    23    24   ar
    49    23    27   ar
    50    25    27   ar
    51    25    56    1
    52    26    30    2
    53    26    57    1
    54    27    58    1
    55    28    30    1
    56    28    31   ar
    57    28    33   ar
    58    29    31   ar
    59    29    32   ar
    60    30    59    1
    61    31    60    1
    62    32    34   ar
    63    33    34   ar
    64    33    61    1
    65    34    62    1
    66    35    63    1
    67    35    64    1
    68    35    65    1
    69    36    66    1
    70    36    67    1
    71    36    68    1
