@<TRIPOS>MOLECULE
IMPHY017609
 57 59 0 0 0
SMALL
GASTEIGER

@<TRIPOS>ATOM
      1 O           4.8158    1.1015    0.0000 O.3     1  UNL1       -0.3670
      2 O           8.3173    0.2440    0.0000 O.3     1  UNL1       -0.4609
      3 O           9.1834   -1.2560    0.0000 O.2     1  UNL1       -0.2508
      4 C           4.5725   -1.5787    0.0000 C.3     1  UNL1       -0.0089
      5 C           3.7435   -1.0195    0.0000 C.3     1  UNL1       -0.0326
      6 C           5.7936   -0.7131    0.0000 C.3     1  UNL1        0.0739
      7 C           6.0524    0.2529    0.0000 C.3     1  UNL1        0.0251
      8 C           4.0191   -0.0583    0.0000 C.3     1  UNL1       -0.0408
      9 C           2.9617   -1.6336    0.0000 C.3     1  UNL1       -0.0407
     10 C           5.6818    1.6015    0.0000 C.3     1  UNL1        0.0708
     11 C           4.2960   -2.5336    0.0000 C.3     1  UNL1       -0.0471
     12 C           7.1925   -1.2219    0.0000 C.3     1  UNL1        0.0139
     13 C           7.4513   -0.2560    0.0000 C.3     1  UNL1        0.1111
     14 C           3.3025   -2.5674    0.0000 C.3     1  UNL1       -0.0498
     15 C           5.5347   -1.6790    0.0000 C.3     1  UNL1       -0.0354
     16 C           2.0000   -1.3596    0.0000 C.3     1  UNL1       -0.0622
     17 C           5.4230    2.5674    0.0000 C.3     1  UNL1       -0.0357
     18 C           6.3889    2.3086    0.0000 C.3     1  UNL1       -0.0357
     19 C           9.1834   -0.2560    0.0000 C.2     1  UNL1        0.3076
     20 C          10.0494    0.2440    0.0000 C.3     1  UNL1        0.0473
     21 C          10.9154   -0.2560    0.0000 C.3     1  UNL1       -0.0367
     22 C          11.7814    0.2440    0.0000 C.3     1  UNL1       -0.0622
     23 C          10.9154   -1.2560    0.0000 C.3     1  UNL1       -0.0622
     24 H           5.0779   -1.9380    0.0000 H       1  UNL1        0.0331
     25 H           3.2290   -0.6735    0.0000 H       1  UNL1        0.0307
     26 H           6.2724    1.0739    0.0000 H       1  UNL1        0.0364
     27 H           4.0141    0.5617    0.0000 H       1  UNL1        0.0273
     28 H           3.4048    0.0255    0.0000 H       1  UNL1        0.0273
     29 H           2.5395   -2.0876    0.0000 H       1  UNL1        0.0301
     30 H           4.2519   -3.1520    0.0000 H       1  UNL1        0.0269
     31 H           4.9064   -2.6425    0.0000 H       1  UNL1        0.0269
     32 H           6.9976   -1.8104    0.0000 H       1  UNL1        0.0329
     33 H           7.7865   -1.3997    0.0000 H       1  UNL1        0.0329
     34 H           7.9432   -0.6334    0.0000 H       1  UNL1        0.0738
     35 H           2.7010   -2.7176    0.0000 H       1  UNL1        0.0268
     36 H           3.3886   -3.1814    0.0000 H       1  UNL1        0.0268
     37 H           4.9359   -1.5185    0.0000 H       1  UNL1        0.0257
     38 H           5.3743   -2.2779    0.0000 H       1  UNL1        0.0257
     39 H           6.1336   -1.8395    0.0000 H       1  UNL1        0.0257
     40 H           2.1699   -0.7633    0.0000 H       1  UNL1        0.0233
     41 H           1.4037   -1.1898    0.0000 H       1  UNL1        0.0233
     42 H           1.8301   -1.9559    0.0000 H       1  UNL1        0.0233
     43 H           6.0218    2.7279    0.0000 H       1  UNL1        0.0257
     44 H           5.2625    3.1663    0.0000 H       1  UNL1        0.0257
     45 H           4.8241    2.4070    0.0000 H       1  UNL1        0.0257
     46 H           6.8273    1.8702    0.0000 H       1  UNL1        0.0257
     47 H           6.8273    2.7470    0.0000 H       1  UNL1        0.0257
     48 H           5.9505    2.7470    0.0000 H       1  UNL1        0.0257
     49 H          10.4479    0.7190    0.0000 H       1  UNL1        0.0380
     50 H           9.6509    0.7190    0.0000 H       1  UNL1        0.0380
     51 H          10.3785   -0.5660    0.0000 H       1  UNL1        0.0301
     52 H          12.0914   -0.2929    0.0000 H       1  UNL1        0.0232
     53 H          12.3184    0.5540    0.0000 H       1  UNL1        0.0232
     54 H          11.4714    0.7810    0.0000 H       1  UNL1        0.0232
     55 H          10.2954   -1.2560    0.0000 H       1  UNL1        0.0232
     56 H          10.9154   -1.8760    0.0000 H       1  UNL1        0.0232
     57 H          11.5354   -1.2560    0.0000 H       1  UNL1        0.0232
@<TRIPOS>BOND
     1     1     6    1
     2     1    10    1
     3    13     2    1
     4     2    19    1
     5     3    19    2
     6     4     5    1
     7     4     6    1
     8     4    11    1
     9     4    24    1
    10     5     8    1
    11     5     9    1
    12     5    25    1
    13     6    12    1
    14     6    15    1
    15     7     8    1
    16     7    10    1
    17     7    13    1
    18     7    26    1
    19     8    27    1
    20     8    28    1
    21     9    14    1
    22     9    16    1
    23     9    29    1
    24    10    17    1
    25    10    18    1
    26    11    14    1
    27    11    30    1
    28    11    31    1
    29    12    13    1
    30    12    32    1
    31    12    33    1
    32    13    34    1
    33    14    35    1
    34    14    36    1
    35    15    37    1
    36    15    38    1
    37    15    39    1
    38    16    40    1
    39    16    41    1
    40    16    42    1
    41    17    43    1
    42    17    44    1
    43    17    45    1
    44    18    46    1
    45    18    47    1
    46    18    48    1
    47    19    20    1
    48    20    21    1
    49    20    49    1
    50    20    50    1
    51    21    22    1
    52    21    23    1
    53    21    51    1
    54    22    52    1
    55    22    53    1
    56    22    54    1
    57    23    55    1
    58    23    56    1
    59    23    57    1
