@<TRIPOS>MOLECULE
IMPHY014408
 33 36 0 0 0
SMALL
GASTEIGER

@<TRIPOS>ATOM
      1 O           6.2081   -1.4392    0.0000 O.2     1  UNL1       -0.4546
      2 O           2.5836    0.1702    0.0000 O.3     1  UNL1       -0.4526
      3 O           2.5836   -1.4392    0.0000 O.3     1  UNL1       -0.4525
      4 O           7.7917    1.0976    0.0000 O.3     1  UNL1       -0.5059
      5 O          10.7917   -0.6345    0.0000 O.3     1  UNL1       -0.4950
      6 C           5.2619   -0.1345    0.0000 C.ar    1  UNL1        0.0245
      7 C           5.2619   -1.1345    0.0000 C.ar    1  UNL1        0.1394
      8 C           6.7917   -0.6345    0.0000 C.ar    1  UNL1        0.1397
      9 C           6.2081    0.1702    0.0000 C.ar    1  UNL1       -0.0078
     10 C           3.5298   -0.1345    0.0000 C.ar    1  UNL1        0.1670
     11 C           3.5298   -1.1345    0.0000 C.ar    1  UNL1        0.1698
     12 C           4.3958    0.3655    0.0000 C.ar    1  UNL1       -0.0054
     13 C           4.3958   -1.6345    0.0000 C.ar    1  UNL1        0.0268
     14 C           7.7917   -0.6345    0.0000 C.ar    1  UNL1        0.0589
     15 C           2.0000   -0.6345    0.0000 C.3     1  UNL1        0.2332
     16 C           8.2917    0.2315    0.0000 C.ar    1  UNL1        0.1310
     17 C           8.2917   -1.5005    0.0000 C.ar    1  UNL1       -0.0441
     18 C           9.2917    0.2315    0.0000 C.ar    1  UNL1        0.0222
     19 C           9.2917   -1.5005    0.0000 C.ar    1  UNL1       -0.0191
     20 C           9.7917   -0.6345    0.0000 C.ar    1  UNL1        0.1236
     21 C          11.2917   -1.5005    0.0000 C.3     1  UNL1        0.0788
     22 H           6.4007    0.7596    0.0000 H       1  UNL1        0.0661
     23 H           4.3958    0.9855    0.0000 H       1  UNL1        0.0662
     24 H           4.3958   -2.2545    0.0000 H       1  UNL1        0.0692
     25 H           1.5391   -0.2198    0.0000 H       1  UNL1        0.1166
     26 H           1.5391   -1.0492    0.0000 H       1  UNL1        0.1166
     27 H           7.9817   -2.0375    0.0000 H       1  UNL1        0.0627
     28 H           9.6017    0.7685    0.0000 H       1  UNL1        0.0691
     29 H           9.6017   -2.0375    0.0000 H       1  UNL1        0.0654
     30 H           8.1017    1.6345    0.0000 H       1  UNL1        0.2922
     31 H          10.7548   -1.8105    0.0000 H       1  UNL1        0.0660
     32 H          11.6017   -2.0375    0.0000 H       1  UNL1        0.0660
     33 H          11.8286   -1.1905    0.0000 H       1  UNL1        0.0660
@<TRIPOS>BOND
     1     1     7   ar
     2     1     8   ar
     3     2    10    1
     4     2    15    1
     5     3    11    1
     6     3    15    1
     7     4    16    1
     8     4    30    1
     9     5    20    1
    10     5    21    1
    11     6     7   ar
    12     6     9   ar
    13     6    12   ar
    14     7    13   ar
    15     8     9   ar
    16     8    14    1
    17     9    22    1
    18    10    11   ar
    19    10    12   ar
    20    11    13   ar
    21    12    23    1
    22    13    24    1
    23    14    16   ar
    24    14    17   ar
    25    15    25    1
    26    15    26    1
    27    16    18   ar
    28    17    19   ar
    29    17    27    1
    30    18    20   ar
    31    18    28    1
    32    19    20   ar
    33    19    29    1
    34    21    31    1
    35    21    32    1
    36    21    33    1
