@<TRIPOS>MOLECULE
IMPHY013586
 40 43 0 0 0
SMALL
GASTEIGER

@<TRIPOS>ATOM
      1 O           2.3597   -1.0343    0.0000 O.3     1  UNL1       -0.3556
      2 O           4.1473    0.5753    0.0000 O.3     1  UNL1       -0.3284
      3 O           2.7624    1.6967    0.0000 O.3     1  UNL1       -0.4321
      4 O           4.2518   -2.4193    0.0000 O.3     1  UNL1       -0.4946
      5 O           7.7438   -2.4539    0.0000 O.2     1  UNL1       -0.4220
      6 O           4.3447    2.4012    0.0000 O.2     1  UNL1       -0.2511
      7 O           9.5140   -2.4434    0.0000 O.2     1  UNL1       -0.2452
      8 C           2.6691   -0.0829    0.0000 C.3     1  UNL1        0.1578
      9 C           3.3383   -0.8260    0.0000 C.3     1  UNL1        0.1246
     10 C           4.2518   -0.4193    0.0000 C.3     1  UNL1        0.1201
     11 C           3.1691    0.7832    0.0000 C.3     1  UNL1        0.2368
     12 C           2.0000    0.6603    0.0000 C.3     1  UNL1       -0.0273
     13 C           5.1178   -0.9193    0.0000 C.ar    1  UNL1        0.0263
     14 C           5.1178   -1.9193    0.0000 C.ar    1  UNL1        0.1293
     15 C           5.9839   -0.4193    0.0000 C.ar    1  UNL1       -0.0419
     16 C           3.3502    2.5057    0.0000 C.2     1  UNL1        0.3062
     17 C           6.8499   -0.9193    0.0000 C.ar    1  UNL1        0.0182
     18 C           5.9839   -2.4193    0.0000 C.ar    1  UNL1        0.0234
     19 C           6.8499   -1.9193    0.0000 C.ar    1  UNL1        0.1425
     20 C           2.9434    3.4193    0.0000 C.3     1  UNL1        0.0333
     21 C           7.7438   -0.3846    0.0000 C.ar    1  UNL1       -0.0443
     22 C           4.2518   -3.4193    0.0000 C.3     1  UNL1        0.0788
     23 C           8.6499   -0.8985    0.0000 C.ar    1  UNL1        0.0236
     24 C           8.6499   -1.9401    0.0000 C.ar    1  UNL1        0.3372
     25 H           3.6010   -1.6344    0.0000 H       1  UNL1        0.0657
     26 H           4.9647    0.0437    0.0000 H       1  UNL1        0.0676
     27 H           2.5500    0.8156    0.0000 H       1  UNL1        0.1088
     28 H           2.4608    1.0751    0.0000 H       1  UNL1        0.0260
     29 H           1.5851    1.1210    0.0000 H       1  UNL1        0.0260
     30 H           1.5392    0.2454    0.0000 H       1  UNL1        0.0260
     31 H           5.9839    0.2007    0.0000 H       1  UNL1        0.0629
     32 H           5.9839   -3.0393    0.0000 H       1  UNL1        0.0691
     33 H           3.5098    3.6714    0.0000 H       1  UNL1        0.0342
     34 H           2.6913    3.9857    0.0000 H       1  UNL1        0.0342
     35 H           2.3770    3.1671    0.0000 H       1  UNL1        0.0342
     36 H           7.7367    0.2353    0.0000 H       1  UNL1        0.0627
     37 H           3.6318   -3.4193    0.0000 H       1  UNL1        0.0660
     38 H           4.2518   -4.0393    0.0000 H       1  UNL1        0.0660
     39 H           4.8718   -3.4193    0.0000 H       1  UNL1        0.0660
     40 H           9.1856   -0.5864    0.0000 H       1  UNL1        0.0689
@<TRIPOS>BOND
     1     1     8    1
     2     1     9    1
     3     2    10    1
     4     2    11    1
     5    11     3    1
     6     3    16    1
     7     4    14    1
     8     4    22    1
     9     5    19   ar
    10     5    24   ar
    11     6    16    2
    12     7    24    2
    13     8     9    1
    14     8    11    1
    15     8    12    1
    16     9    10    1
    17     9    25    1
    18    10    13    1
    19    10    26    1
    20    11    27    1
    21    12    28    1
    22    12    29    1
    23    12    30    1
    24    13    14   ar
    25    13    15   ar
    26    14    18   ar
    27    15    17   ar
    28    15    31    1
    29    16    20    1
    30    17    19   ar
    31    17    21   ar
    32    18    19   ar
    33    18    32    1
    34    20    33    1
    35    20    34    1
    36    20    35    1
    37    21    23   ar
    38    21    36    1
    39    22    37    1
    40    22    38    1
    41    22    39    1
    42    23    24   ar
    43    23    40    1
