@<TRIPOS>MOLECULE
IMPHY006406
 25 24 0 0 0
SMALL
GASTEIGER

@<TRIPOS>ATOM
      1 O           4.5981   -0.9050    0.0000 O.3     1  UNL1       -0.3878
      2 C           5.4641    0.5950    0.0000 C.3     1  UNL1       -0.0233
      3 C           6.3301    0.0950    0.0000 C.3     1  UNL1       -0.0507
      4 C           4.5981    0.0950    0.0000 C.3     1  UNL1        0.0734
      5 C           7.1962    0.5950    0.0000 C.3     1  UNL1       -0.0558
      6 C           8.0622    0.0950    0.0000 C.3     1  UNL1       -0.0653
      7 C           3.7320    0.5950    0.0000 C.2     1  UNL1       -0.0601
      8 C           2.8660    0.0950    0.0000 C.2     1  UNL1       -0.0886
      9 C           2.0000    0.5950    0.0000 C.3     1  UNL1       -0.0467
     10 H           5.8626    1.0700    0.0000 H       1  UNL1        0.0293
     11 H           5.0656    1.0700    0.0000 H       1  UNL1        0.0293
     12 H           5.9316   -0.3799    0.0000 H       1  UNL1        0.0266
     13 H           6.7287   -0.3799    0.0000 H       1  UNL1        0.0266
     14 H           5.3342   -0.3300    0.0000 H       1  UNL1        0.0637
     15 H           7.5947    1.0700    0.0000 H       1  UNL1        0.0263
     16 H           6.7976    1.0700    0.0000 H       1  UNL1        0.0263
     17 H           7.7522   -0.4419    0.0000 H       1  UNL1        0.0230
     18 H           8.5991   -0.2150    0.0000 H       1  UNL1        0.0230
     19 H           8.3722    0.6319    0.0000 H       1  UNL1        0.0230
     20 H           3.7320    1.2150    0.0000 H       1  UNL1        0.0594
     21 H           5.1350   -1.2150    0.0000 H       1  UNL1        0.2102
     22 H           2.8660   -0.5250    0.0000 H       1  UNL1        0.0567
     23 H           2.3100    1.1319    0.0000 H       1  UNL1        0.0272
     24 H           1.4631    0.9050    0.0000 H       1  UNL1        0.0272
     25 H           1.6900    0.0581    0.0000 H       1  UNL1        0.0272
@<TRIPOS>BOND
     1     1     4    1
     2     1    21    1
     3     2     3    1
     4     2     4    1
     5     2    10    1
     6     2    11    1
     7     3     5    1
     8     3    12    1
     9     3    13    1
    10     4     7    1
    11     4    14    1
    12     5     6    1
    13     5    15    1
    14     5    16    1
    15     6    17    1
    16     6    18    1
    17     6    19    1
    18     7     8    2
    19     7    20    1
    20     8     9    1
    21     8    22    1
    22     9    23    1
    23     9    24    1
    24     9    25    1
