@<TRIPOS>MOLECULE
IMPHY007065
 21 22 0 0 0
SMALL
GASTEIGER

@<TRIPOS>ATOM
      1 O           6.2781    2.1530    0.0000 O.co2   1  UNL1       -0.5495
      2 O           6.6353    0.4582    0.0000 O.co2   1  UNL1       -0.5495
      3 N           4.6783   -1.5637    0.0000 N.ar    1  UNL1       -0.3604
      4 C           3.7320   -0.2590    0.0000 C.ar    1  UNL1        0.0032
      5 C           4.6783    0.0458    0.0000 C.ar    1  UNL1       -0.0169
      6 C           3.7320   -1.2590    0.0000 C.ar    1  UNL1        0.0467
      7 C           5.2619   -0.7590    0.0000 C.ar    1  UNL1        0.0063
      8 C           4.9889    0.9963    0.0000 C.3     1  UNL1        0.0140
      9 C           2.8660    0.2410    0.0000 C.ar    1  UNL1       -0.0523
     10 C           2.8660   -1.7590    0.0000 C.ar    1  UNL1       -0.0378
     11 C           2.0000   -0.2590    0.0000 C.ar    1  UNL1       -0.0611
     12 C           2.0000   -1.2590    0.0000 C.ar    1  UNL1       -0.0598
     13 C           5.9674    1.2025    0.0000 C.2     1  UNL1        0.0461
     14 H           5.8819   -0.7590    0.0000 H       1  UNL1        0.0810
     15 H           4.9684    1.6159    0.0000 H       1  UNL1        0.0374
     16 H           4.3751    1.0836    0.0000 H       1  UNL1        0.0374
     17 H           4.8709   -2.1530    0.0000 H       1  UNL1        0.1653
     18 H           2.8660    0.8610    0.0000 H       1  UNL1        0.0624
     19 H           2.8660   -2.3790    0.0000 H       1  UNL1        0.0638
     20 H           1.4631    0.0510    0.0000 H       1  UNL1        0.0618
     21 H           1.4631   -1.5690    0.0000 H       1  UNL1        0.0618
@<TRIPOS>UNITY_ATOM_ATTR
1 1
charge -1
@<TRIPOS>BOND
     1     1    13   ar
     2     2    13   ar
     3     3     6   ar
     4     3     7   ar
     5     3    17    1
     6     4     5   ar
     7     4     6   ar
     8     4     9   ar
     9     5     7   ar
    10     5     8    1
    11     6    10   ar
    12     7    14    1
    13     8    13    1
    14     8    15    1
    15     8    16    1
    16     9    11   ar
    17     9    18    1
    18    10    12   ar
    19    10    19    1
    20    11    12   ar
    21    11    20    1
    22    12    21    1
