@<TRIPOS>MOLECULE
IMPHY012047
 82 88 0 0 0
SMALL
GASTEIGER

@<TRIPOS>ATOM
      1 O           7.2333   -1.7052    0.0000 O.3     1  UNL1       -0.3179
      2 O           6.3210   -2.4959    0.0000 O.3     1  UNL1       -0.3190
      3 O           6.0169   -3.5501    0.0000 O.3     1  UNL1       -0.3125
      4 O           8.4766    0.2331    0.0000 O.3     1  UNL1       -0.3797
      5 O           9.2897    0.7019    0.0000 O.2     1  UNL1       -0.2893
      6 O           6.2448    0.8464    0.0000 O.3     1  UNL1       -0.4600
      7 O           4.5321    1.1046    0.0000 O.2     1  UNL1       -0.2505
      8 O           2.4847    4.9527    0.0000 O.3     1  UNL1       -0.5068
      9 C           8.1557   -2.3686    0.0000 C.3     1  UNL1        0.0956
     10 C           7.2434   -2.3686    0.0000 C.3     1  UNL1        0.0371
     11 C           6.7873   -3.1587    0.0000 C.3     1  UNL1        0.1060
     12 C           7.2434   -3.9487    0.0000 C.3     1  UNL1        0.1226
     13 C           8.6118   -3.1587    0.0000 C.3     1  UNL1       -0.0102
     14 C           8.7245   -1.6553    0.0000 C.3     1  UNL1        0.0443
     15 C           8.1557   -3.9487    0.0000 C.3     1  UNL1       -0.0120
     16 C           5.3884   -2.4959    0.0000 C.3     1  UNL1        0.2914
     17 C           8.5215   -0.7659    0.0000 C.3     1  UNL1        0.1403
     18 C           6.6746   -1.6553    0.0000 C.2     1  UNL1       -0.0731
     19 C           9.6118   -3.1587    0.0000 C.3     1  UNL1       -0.0597
     20 C           7.6996   -0.3701    0.0000 C.3     1  UNL1        0.0084
     21 C           7.0869   -4.9364    0.0000 C.2     1  UNL1       -0.0457
     22 C           9.6331   -1.7371    0.0000 C.2     1  UNL1       -0.0687
     23 C           6.8776   -0.7659    0.0000 C.2     1  UNL1       -0.0329
     24 C           4.4374   -2.1869    0.0000 C.3     1  UNL1        0.0546
     25 C           9.3047   -0.2980    0.0000 C.2     1  UNL1        0.1909
     26 C           9.9917   -0.8982    0.0000 C.2     1  UNL1       -0.0086
     27 C           7.8640   -5.5658    0.0000 C.3     1  UNL1       -0.0413
     28 C           6.0958   -0.1424    0.0000 C.3     1  UNL1        0.1137
     29 C           6.1533   -5.2947    0.0000 C.2     1  UNL1       -0.0969
     30 C           3.6942   -2.8560    0.0000 C.ar    1  UNL1       -0.0397
     31 C          10.9666   -0.6757    0.0000 C.3     1  UNL1       -0.0366
     32 C           2.7432   -2.5470    0.0000 C.ar    1  UNL1       -0.0583
     33 C           3.9021   -3.8341    0.0000 C.ar    1  UNL1       -0.0583
     34 C           2.0000   -3.2161    0.0000 C.ar    1  UNL1       -0.0615
     35 C           3.1590   -4.5033    0.0000 C.ar    1  UNL1       -0.0615
     36 C           5.4630    1.4699    0.0000 C.2     1  UNL1        0.3118
     37 C           2.2079   -4.1942    0.0000 C.ar    1  UNL1       -0.0617
     38 C           5.6120    2.4587    0.0000 C.3     1  UNL1        0.0701
     39 C           4.8302    3.0822    0.0000 C.ar    1  UNL1       -0.0365
     40 C           3.8993    2.7169    0.0000 C.ar    1  UNL1       -0.0546
     41 C           4.9793    4.0710    0.0000 C.ar    1  UNL1       -0.0546
     42 C           3.1175    3.3404    0.0000 C.ar    1  UNL1       -0.0199
     43 C           4.1974    4.6945    0.0000 C.ar    1  UNL1       -0.0199
     44 C           3.2666    4.3292    0.0000 C.ar    1  UNL1        0.1169
     45 H           7.5534   -2.9055    0.0000 H       1  UNL1        0.0398
     46 H           6.2647   -3.4924    0.0000 H       1  UNL1        0.0637
     47 H           8.9218   -2.6217    0.0000 H       1  UNL1        0.0327
     48 H           8.9682   -2.2254    0.0000 H       1  UNL1        0.0404
     49 H           8.0480   -4.5593    0.0000 H       1  UNL1        0.0301
     50 H           8.7383   -4.1608    0.0000 H       1  UNL1        0.0301
     51 H           6.0701   -1.7933    0.0000 H       1  UNL1        0.0577
     52 H           9.6118   -3.7787    0.0000 H       1  UNL1        0.0233
     53 H          10.2318   -3.1587    0.0000 H       1  UNL1        0.0233
     54 H           9.6118   -2.5387    0.0000 H       1  UNL1        0.0233
     55 H           8.0861    0.1146    0.0000 H       1  UNL1        0.0343
     56 H           7.3130    0.1146    0.0000 H       1  UNL1        0.0343
     57 H           9.9511   -2.2694    0.0000 H       1  UNL1        0.0580
     58 H           4.7284   -1.6394    0.0000 H       1  UNL1        0.0392
     59 H           3.9488   -1.8052    0.0000 H       1  UNL1        0.0392
     60 H           7.9263    0.5187    0.0000 H       1  UNL1        0.2108
     61 H           7.4738   -6.0476    0.0000 H       1  UNL1        0.0275
     62 H           8.3458   -5.9560    0.0000 H       1  UNL1        0.0275
     63 H           8.2542   -5.0840    0.0000 H       1  UNL1        0.0275
     64 H           5.5081    0.0550    0.0000 H       1  UNL1        0.0745
     65 H           5.7993   -0.6869    0.0000 H       1  UNL1        0.0745
     66 H           5.6715   -4.9045    0.0000 H       1  UNL1        0.0535
     67 H           6.0563   -5.9071    0.0000 H       1  UNL1        0.0535
     68 H          11.1046   -1.2802    0.0000 H       1  UNL1        0.0279
     69 H          11.5711   -0.5378    0.0000 H       1  UNL1        0.0279
     70 H          10.8286   -0.0713    0.0000 H       1  UNL1        0.0279
     71 H           2.6142   -1.9405    0.0000 H       1  UNL1        0.0620
     72 H           4.4918   -4.0257    0.0000 H       1  UNL1        0.0620
     73 H           1.4104   -3.0245    0.0000 H       1  UNL1        0.0618
     74 H           3.2879   -5.1097    0.0000 H       1  UNL1        0.0618
     75 H           1.7472   -4.6091    0.0000 H       1  UNL1        0.0618
     76 H           6.1998    2.2613    0.0000 H       1  UNL1        0.0426
     77 H           5.9086    3.0032    0.0000 H       1  UNL1        0.0426
     78 H           3.8069    2.1038    0.0000 H       1  UNL1        0.0622
     79 H           5.5564    4.2976    0.0000 H       1  UNL1        0.0622
     80 H           2.5404    3.1139    0.0000 H       1  UNL1        0.0654
     81 H           4.2898    5.3076    0.0000 H       1  UNL1        0.0654
     82 H           2.5771    5.5658    0.0000 H       1  UNL1        0.2921
@<TRIPOS>BOND
     1     1     9    1
     2     1    16    1
     3     2    11    1
     4     2    16    1
     5     3    12    1
     6     3    16    1
     7     4    17    1
     8     4    60    1
     9     5    25    2
    10     6    28    1
    11     6    36    1
    12     7    36    2
    13     8    44    1
    14     8    82    1
    15     9    10    1
    16     9    13    1
    17     9    14    1
    18    10    11    1
    19    10    18    1
    20    10    45    1
    21    11    12    1
    22    11    46    1
    23    12    15    1
    24    12    21    1
    25    13    15    1
    26    13    19    1
    27    13    47    1
    28    14    17    1
    29    14    22    1
    30    14    48    1
    31    15    49    1
    32    15    50    1
    33    16    24    1
    34    17    20    1
    35    17    25    1
    36    18    23    2
    37    18    51    1
    38    19    52    1
    39    19    53    1
    40    19    54    1
    41    20    23    1
    42    20    55    1
    43    20    56    1
    44    21    27    1
    45    21    29    2
    46    22    26    2
    47    22    57    1
    48    23    28    1
    49    24    30    1
    50    24    58    1
    51    24    59    1
    52    25    26    1
    53    26    31    1
    54    27    61    1
    55    27    62    1
    56    27    63    1
    57    28    64    1
    58    28    65    1
    59    29    66    1
    60    29    67    1
    61    30    32   ar
    62    30    33   ar
    63    31    68    1
    64    31    69    1
    65    31    70    1
    66    32    34   ar
    67    32    71    1
    68    33    35   ar
    69    33    72    1
    70    34    37   ar
    71    34    73    1
    72    35    37   ar
    73    35    74    1
    74    36    38    1
    75    37    75    1
    76    38    39    1
    77    38    76    1
    78    38    77    1
    79    39    40   ar
    80    39    41   ar
    81    40    42   ar
    82    40    78    1
    83    41    43   ar
    84    41    79    1
    85    42    44   ar
    86    42    80    1
    87    43    44   ar
    88    43    81    1
