@<TRIPOS>MOLECULE
IMPHY015286
 31 30 0 0 0
SMALL
GASTEIGER

@<TRIPOS>ATOM
      1 O           2.0000   -0.0600    0.0000 O.2     1  UNL1       -0.3008
      2 C           5.4641   -0.0600    0.0000 C.3     1  UNL1       -0.0524
      3 C           6.3301    0.4400    0.0000 C.3     1  UNL1       -0.0530
      4 C           4.5981    0.4400    0.0000 C.3     1  UNL1       -0.0440
      5 C           7.1962   -0.0600    0.0000 C.3     1  UNL1       -0.0531
      6 C           3.7320   -0.0600    0.0000 C.3     1  UNL1        0.0117
      7 C           8.0622    0.4400    0.0000 C.3     1  UNL1       -0.0533
      8 C           8.9282   -0.0600    0.0000 C.3     1  UNL1       -0.0559
      9 C           3.7320   -1.0600    0.0000 C.3     1  UNL1       -0.0560
     10 C           2.8660    0.4400    0.0000 C.2     1  UNL1        0.1231
     11 C           9.7942    0.4400    0.0000 C.3     1  UNL1       -0.0653
     12 H           5.0656   -0.5349    0.0000 H       1  UNL1        0.0265
     13 H           5.8626   -0.5349    0.0000 H       1  UNL1        0.0265
     14 H           6.7287    0.9149    0.0000 H       1  UNL1        0.0265
     15 H           5.9316    0.9149    0.0000 H       1  UNL1        0.0265
     16 H           4.9966    0.9149    0.0000 H       1  UNL1        0.0272
     17 H           4.1996    0.9149    0.0000 H       1  UNL1        0.0272
     18 H           6.7976   -0.5349    0.0000 H       1  UNL1        0.0265
     19 H           7.5947   -0.5349    0.0000 H       1  UNL1        0.0265
     20 H           3.7320    0.5600    0.0000 H       1  UNL1        0.0372
     21 H           8.4607    0.9149    0.0000 H       1  UNL1        0.0265
     22 H           7.6636    0.9149    0.0000 H       1  UNL1        0.0265
     23 H           8.5297   -0.5349    0.0000 H       1  UNL1        0.0263
     24 H           9.3267   -0.5349    0.0000 H       1  UNL1        0.0263
     25 H           3.1120   -1.0600    0.0000 H       1  UNL1        0.0236
     26 H           3.7320   -1.6800    0.0000 H       1  UNL1        0.0236
     27 H           4.3520   -1.0600    0.0000 H       1  UNL1        0.0236
     28 H           2.8660    1.0600    0.0000 H       1  UNL1        0.1029
     29 H          10.1042   -0.0969    0.0000 H       1  UNL1        0.0230
     30 H          10.3312    0.7500    0.0000 H       1  UNL1        0.0230
     31 H           9.4842    0.9769    0.0000 H       1  UNL1        0.0230
@<TRIPOS>BOND
     1     1    10    2
     2     2     3    1
     3     2     4    1
     4     2    12    1
     5     2    13    1
     6     3     5    1
     7     3    14    1
     8     3    15    1
     9     4     6    1
    10     4    16    1
    11     4    17    1
    12     5     7    1
    13     5    18    1
    14     5    19    1
    15     6     9    1
    16     6    10    1
    17     6    20    1
    18     7     8    1
    19     7    21    1
    20     7    22    1
    21     8    11    1
    22     8    23    1
    23     8    24    1
    24     9    25    1
    25     9    26    1
    26     9    27    1
    27    10    28    1
    28    11    29    1
    29    11    30    1
    30    11    31    1
