@<TRIPOS>MOLECULE
IMPHY014466
 38 39 0 0 0
SMALL
GASTEIGER

@<TRIPOS>ATOM
      1 O           2.8660   -5.4050    0.0000 O.3     1  UNL1       -0.5068
      2 O           8.9282    5.0950    0.0000 O.3     1  UNL1       -0.5068
      3 O           2.8660    0.5950    0.0000 O.2     1  UNL1       -0.2879
      4 C           2.8660   -2.4050    0.0000 C.ar    1  UNL1       -0.0247
      5 C           6.3301    3.5950    0.0000 C.ar    1  UNL1       -0.0248
      6 C           3.7320   -2.9050    0.0000 C.ar    1  UNL1       -0.0511
      7 C           2.0000   -2.9050    0.0000 C.ar    1  UNL1       -0.0511
      8 C           6.3301    4.5950    0.0000 C.ar    1  UNL1       -0.0511
      9 C           7.1962    3.0950    0.0000 C.ar    1  UNL1       -0.0511
     10 C           2.8660   -1.4050    0.0000 C.2     1  UNL1       -0.0510
     11 C           5.4641    3.0950    0.0000 C.2     1  UNL1       -0.0546
     12 C           3.7320   -3.9050    0.0000 C.ar    1  UNL1       -0.0196
     13 C           2.0000   -3.9050    0.0000 C.ar    1  UNL1       -0.0196
     14 C           7.1962    5.0950    0.0000 C.ar    1  UNL1       -0.0196
     15 C           8.0622    3.5950    0.0000 C.ar    1  UNL1       -0.0196
     16 C           2.8660   -4.4050    0.0000 C.ar    1  UNL1        0.1169
     17 C           8.0622    4.5950    0.0000 C.ar    1  UNL1        0.1169
     18 C           3.7320   -0.9050    0.0000 C.2     1  UNL1       -0.0144
     19 C           5.4641    2.0950    0.0000 C.2     1  UNL1       -0.0611
     20 C           3.7320    0.0950    0.0000 C.2     1  UNL1        0.1790
     21 C           4.5981    1.5950    0.0000 C.2     1  UNL1       -0.0581
     22 C           4.5981    0.5950    0.0000 C.2     1  UNL1       -0.0149
     23 H           4.2690   -2.5950    0.0000 H       1  UNL1        0.0625
     24 H           1.4631   -2.5950    0.0000 H       1  UNL1        0.0625
     25 H           5.7932    4.9050    0.0000 H       1  UNL1        0.0625
     26 H           7.1962    2.4750    0.0000 H       1  UNL1        0.0625
     27 H           2.3291   -1.0950    0.0000 H       1  UNL1        0.0625
     28 H           4.9272    3.4050    0.0000 H       1  UNL1        0.0623
     29 H           4.2690   -4.2150    0.0000 H       1  UNL1        0.0654
     30 H           1.4631   -4.2150    0.0000 H       1  UNL1        0.0654
     31 H           7.1962    5.7150    0.0000 H       1  UNL1        0.0654
     32 H           8.5991    3.2850    0.0000 H       1  UNL1        0.0654
     33 H           4.2690   -1.2150    0.0000 H       1  UNL1        0.0656
     34 H           6.0010    1.7850    0.0000 H       1  UNL1        0.0618
     35 H           4.0611    1.9050    0.0000 H       1  UNL1        0.0619
     36 H           5.1350    0.2850    0.0000 H       1  UNL1        0.0656
     37 H           2.3291   -5.7150    0.0000 H       1  UNL1        0.2921
     38 H           8.9282    5.7150    0.0000 H       1  UNL1        0.2921
@<TRIPOS>BOND
     1     1    16    1
     2     1    37    1
     3     2    17    1
     4     2    38    1
     5     3    20    2
     6     4     6   ar
     7     4     7   ar
     8     4    10    1
     9     5     8   ar
    10     5     9   ar
    11     5    11    1
    12     6    12   ar
    13     6    23    1
    14     7    13   ar
    15     7    24    1
    16     8    14   ar
    17     8    25    1
    18     9    15   ar
    19     9    26    1
    20    10    18    2
    21    10    27    1
    22    11    19    2
    23    11    28    1
    24    12    16   ar
    25    12    29    1
    26    13    16   ar
    27    13    30    1
    28    14    17   ar
    29    14    31    1
    30    15    17   ar
    31    15    32    1
    32    18    20    1
    33    18    33    1
    34    19    21    1
    35    19    34    1
    36    20    22    1
    37    21    22    2
    38    21    35    1
    39    22    36    1
