@<TRIPOS>MOLECULE
IMPHY005335
 93 99 0 0 0
SMALL
GASTEIGER

@<TRIPOS>ATOM
      1 O          11.6877    5.4345    0.0000 O.3     1  UNL1       -0.3607
      2 O          12.3542    6.2215    0.0000 O.3     1  UNL1       -0.3848
      3 O          13.6481    2.3635    0.0000 O.2     1  UNL1       -0.2920
      4 O           7.7331   -0.3808    0.0000 O.3     1  UNL1       -0.4574
      5 O           6.0010   -0.3808    0.0000 O.2     1  UNL1       -0.2452
      6 O           6.0010   -3.3808    0.0000 O.3     1  UNL1       -0.3438
      7 O           4.2690   -3.3808    0.0000 O.3     1  UNL1       -0.3405
      8 O           6.0010   -5.3808    0.0000 O.3     1  UNL1       -0.3841
      9 O           4.2690   -6.3808    0.0000 O.3     1  UNL1       -0.3864
     10 O           2.5369   -5.3808    0.0000 O.3     1  UNL1       -0.3865
     11 O           2.5369   -2.3808    0.0000 O.3     1  UNL1       -0.3924
     12 C          10.6814    2.9871    0.0000 C.3     1  UNL1       -0.0314
     13 C          12.0056    4.4859    0.0000 C.3     1  UNL1        0.1376
     14 C          11.6614    2.7884    0.0000 C.3     1  UNL1       -0.0226
     15 C          12.3235    3.5378    0.0000 C.3     1  UNL1        0.0673
     16 C           9.9798    2.2172    0.0000 C.3     1  UNL1       -0.0322
     17 C          10.3034    1.2271    0.0000 C.3     1  UNL1       -0.0258
     18 C          11.0255    4.6846    0.0000 C.3     1  UNL1        0.0925
     19 C          10.3634    3.9352    0.0000 C.3     1  UNL1       -0.0203
     20 C           9.4651    0.6192    0.0000 C.3     1  UNL1       -0.0294
     21 C          12.0079    1.8061    0.0000 C.3     1  UNL1       -0.0484
     22 C          11.3242    1.0201    0.0000 C.3     1  UNL1       -0.0468
     23 C           8.9443    2.2127    0.0000 C.3     1  UNL1       -0.0492
     24 C          12.6831    5.2771    0.0000 C.3     1  UNL1        0.1060
     25 C           8.6269    1.2271    0.0000 C.3     1  UNL1       -0.0491
     26 C          12.6415    2.5897    0.0000 C.3     1  UNL1       -0.0494
     27 C          13.3411    3.3152    0.0000 C.2     1  UNL1        0.1649
     28 C          10.6140    0.2766    0.0000 C.3     1  UNL1       -0.0590
     29 C           9.4651   -0.3808    0.0000 C.3     1  UNL1       -0.0030
     30 C          13.7055    5.0780    0.0000 C.2     1  UNL1       -0.0497
     31 C          14.0367    4.0905    0.0000 C.2     1  UNL1       -0.0200
     32 C           8.5991   -0.8808    0.0000 C.3     1  UNL1        0.1099
     33 C          10.3312   -0.8808    0.0000 C.3     1  UNL1       -0.0588
     34 C           8.5991   -1.8808    0.0000 C.3     1  UNL1        0.0064
     35 C           7.7331   -2.3808    0.0000 C.2     1  UNL1       -0.0570
     36 C           6.8671   -0.8808    0.0000 C.2     1  UNL1        0.3376
     37 C           6.8671   -1.8808    0.0000 C.2     1  UNL1        0.0611
     38 C           7.7331   -3.3808    0.0000 C.3     1  UNL1       -0.0428
     39 C           6.0010   -2.3808    0.0000 C.3     1  UNL1        0.0825
     40 C           5.1350   -3.8808    0.0000 C.3     1  UNL1        0.1883
     41 C           5.1350   -4.8808    0.0000 C.3     1  UNL1        0.1341
     42 C           4.2690   -5.3808    0.0000 C.3     1  UNL1        0.1141
     43 C           3.4030   -3.8808    0.0000 C.3     1  UNL1        0.1130
     44 C           3.4030   -4.8808    0.0000 C.3     1  UNL1        0.1119
     45 C           2.5369   -3.3808    0.0000 C.3     1  UNL1        0.0730
     46 H          11.2442    3.6241    0.0000 H       1  UNL1        0.0307
     47 H          12.4958    2.6260    0.0000 H       1  UNL1        0.0314
     48 H           9.6347    2.9940    0.0000 H       1  UNL1        0.0309
     49 H          10.3884    5.2473    0.0000 H       1  UNL1        0.0626
     50 H           9.9771    4.4201    0.0000 H       1  UNL1        0.0294
     51 H           9.8187    3.6390    0.0000 H       1  UNL1        0.0294
     52 H           8.7080    0.2330    0.0000 H       1  UNL1        0.0310
     53 H          12.3991    1.3251    0.0000 H       1  UNL1        0.0268
     54 H          12.5487    2.1093    0.0000 H       1  UNL1        0.0268
     55 H          11.0989    0.4425    0.0000 H       1  UNL1        0.0271
     56 H          11.8548    0.6993    0.0000 H       1  UNL1        0.0271
     57 H           9.0068    2.8295    0.0000 H       1  UNL1        0.0268
     58 H           8.3375    2.3397    0.0000 H       1  UNL1        0.0268
     59 H          13.0891    5.7457    0.0000 H       1  UNL1        0.0668
     60 H           8.0600    1.4781    0.0000 H       1  UNL1        0.0268
     61 H           8.3177    0.6897    0.0000 H       1  UNL1        0.0268
     62 H          12.0537    2.3926    0.0000 H       1  UNL1        0.0240
     63 H          12.8387    2.0019    0.0000 H       1  UNL1        0.0240
     64 H          13.2293    2.7869    0.0000 H       1  UNL1        0.0240
     65 H          10.0247    0.0840    0.0000 H       1  UNL1        0.0235
     66 H          10.8066   -0.3128    0.0000 H       1  UNL1        0.0235
     67 H          11.2034    0.4692    0.0000 H       1  UNL1        0.0235
     68 H          10.0021   -0.0708    0.0000 H       1  UNL1        0.0337
     69 H          14.1142    5.5443    0.0000 H       1  UNL1        0.0599
     70 H          14.6439    3.9650    0.0000 H       1  UNL1        0.0650
     71 H           8.5991   -0.0308    0.0000 H       1  UNL1        0.0740
     72 H          12.7593    6.6908    0.0000 H       1  UNL1        0.2103
     73 H          10.0212   -1.4178    0.0000 H       1  UNL1        0.0234
     74 H          10.8681   -1.1908    0.0000 H       1  UNL1        0.0234
     75 H          10.6412   -0.3439    0.0000 H       1  UNL1        0.0234
     76 H           8.8112   -2.4634    0.0000 H       1  UNL1        0.0346
     77 H           9.2097   -1.7732    0.0000 H       1  UNL1        0.0346
     78 H           7.1131   -3.3808    0.0000 H       1  UNL1        0.0275
     79 H           7.7331   -4.0008    0.0000 H       1  UNL1        0.0275
     80 H           8.3531   -3.3808    0.0000 H       1  UNL1        0.0275
     81 H           5.7890   -1.7982    0.0000 H       1  UNL1        0.0613
     82 H           5.3905   -2.4885    0.0000 H       1  UNL1        0.0613
     83 H           5.1350   -3.2608    0.0000 H       1  UNL1        0.0938
     84 H           5.1350   -5.5008    0.0000 H       1  UNL1        0.0671
     85 H           3.7320   -5.6908    0.0000 H       1  UNL1        0.0648
     86 H           3.4030   -3.2608    0.0000 H       1  UNL1        0.0647
     87 H           3.4030   -5.5008    0.0000 H       1  UNL1        0.0647
     88 H           6.5380   -5.0708    0.0000 H       1  UNL1        0.2101
     89 H           1.9264   -3.2732    0.0000 H       1  UNL1        0.0584
     90 H           2.3249   -3.9634    0.0000 H       1  UNL1        0.0584
     91 H           3.7320   -6.6908    0.0000 H       1  UNL1        0.2100
     92 H           2.0000   -5.0708    0.0000 H       1  UNL1        0.2100
     93 H           2.0000   -2.0708    0.0000 H       1  UNL1        0.2095
@<TRIPOS>BOND
     1    13     1    1
     2     1    18    1
     3    24     2    1
     4     2    72    1
     5     3    27    2
     6     4    32    1
     7     4    36    1
     8     5    36    2
     9     6    39    1
    10    40     6    1
    11     7    40    1
    12     7    43    1
    13    41     8    1
    14     8    88    1
    15    42     9    1
    16     9    91    1
    17    44    10    1
    18    10    92    1
    19    11    45    1
    20    11    93    1
    21    12    14    1
    22    12    16    1
    23    12    19    1
    24    12    46    1
    25    13    15    1
    26    13    18    1
    27    13    24    1
    28    14    15    1
    29    14    21    1
    30    14    47    1
    31    15    26    1
    32    15    27    1
    33    16    17    1
    34    16    23    1
    35    16    48    1
    36    17    20    1
    37    17    22    1
    38    17    28    1
    39    18    19    1
    40    18    49    1
    41    19    50    1
    42    19    51    1
    43    20    25    1
    44    20    29    1
    45    20    52    1
    46    21    22    1
    47    21    53    1
    48    21    54    1
    49    22    55    1
    50    22    56    1
    51    23    25    1
    52    23    57    1
    53    23    58    1
    54    24    30    1
    55    24    59    1
    56    25    60    1
    57    25    61    1
    58    26    62    1
    59    26    63    1
    60    26    64    1
    61    27    31    1
    62    28    65    1
    63    28    66    1
    64    28    67    1
    65    29    32    1
    66    29    33    1
    67    29    68    1
    68    30    31    2
    69    30    69    1
    70    31    70    1
    71    32    34    1
    72    32    71    1
    73    33    73    1
    74    33    74    1
    75    33    75    1
    76    34    35    1
    77    34    76    1
    78    34    77    1
    79    35    37    2
    80    35    38    1
    81    36    37    1
    82    37    39    1
    83    38    78    1
    84    38    79    1
    85    38    80    1
    86    39    81    1
    87    39    82    1
    88    40    41    1
    89    40    83    1
    90    41    42    1
    91    41    84    1
    92    42    44    1
    93    42    85    1
    94    43    44    1
    95    43    45    1
    96    43    86    1
    97    44    87    1
    98    45    89    1
    99    45    90    1
