@<TRIPOS>MOLECULE
IMPHY011061
 28 28 0 0 0
SMALL
GASTEIGER

@<TRIPOS>ATOM
      1 O           2.5369    0.7500    0.0000 O.3     1  UNL1       -0.3875
      2 O           6.0010   -1.2500    0.0000 O.2     1  UNL1       -0.2924
      3 C           4.2690    0.7500    0.0000 C.3     1  UNL1       -0.0021
      4 C           4.2690    1.7500    0.0000 C.3     1  UNL1       -0.0408
      5 C           3.4030    0.2500    0.0000 C.3     1  UNL1        0.0774
      6 C           5.1350    0.2500    0.0000 C.3     1  UNL1        0.0158
      7 C           3.4030   -0.7500    0.0000 C.2     1  UNL1       -0.0494
      8 C           5.1350   -0.7500    0.0000 C.2     1  UNL1        0.1591
      9 C           5.1350    2.2500    0.0000 C.3     1  UNL1       -0.0623
     10 C           3.4030    2.2500    0.0000 C.3     1  UNL1       -0.0623
     11 C           4.2690   -1.2500    0.0000 C.2     1  UNL1       -0.0096
     12 C           4.2690   -2.2500    0.0000 C.3     1  UNL1       -0.0366
     13 H           4.8059    1.0600    0.0000 H       1  UNL1        0.0335
     14 H           4.2690    2.3700    0.0000 H       1  UNL1        0.0299
     15 H           3.4030    0.8700    0.0000 H       1  UNL1        0.0641
     16 H           5.7456    0.1423    0.0000 H       1  UNL1        0.0349
     17 H           5.3471    0.8326    0.0000 H       1  UNL1        0.0349
     18 H           2.8660   -1.0600    0.0000 H       1  UNL1        0.0601
     19 H           5.4450    1.7131    0.0000 H       1  UNL1        0.0232
     20 H           5.6720    2.5600    0.0000 H       1  UNL1        0.0232
     21 H           4.8250    2.7869    0.0000 H       1  UNL1        0.0232
     22 H           3.7130    2.7869    0.0000 H       1  UNL1        0.0232
     23 H           2.8660    2.5600    0.0000 H       1  UNL1        0.0232
     24 H           3.0930    1.7131    0.0000 H       1  UNL1        0.0232
     25 H           2.0000    0.4400    0.0000 H       1  UNL1        0.2102
     26 H           3.6490   -2.2500    0.0000 H       1  UNL1        0.0279
     27 H           4.2690   -2.8700    0.0000 H       1  UNL1        0.0279
     28 H           4.8890   -2.2500    0.0000 H       1  UNL1        0.0279
@<TRIPOS>BOND
     1     1     5    1
     2     1    25    1
     3     2     8    2
     4     3     4    1
     5     3     5    1
     6     3     6    1
     7     3    13    1
     8     4     9    1
     9     4    10    1
    10     4    14    1
    11     5     7    1
    12     5    15    1
    13     6     8    1
    14     6    16    1
    15     6    17    1
    16     7    11    2
    17     7    18    1
    18     8    11    1
    19     9    19    1
    20     9    20    1
    21     9    21    1
    22    10    22    1
    23    10    23    1
    24    10    24    1
    25    11    12    1
    26    12    26    1
    27    12    27    1
    28    12    28    1
