@<TRIPOS>MOLECULE
IMPHY012379
 58 61 0 0 0
SMALL
GASTEIGER

@<TRIPOS>ATOM
      1 O           5.1350   -2.8762    0.0000 O.3     1  UNL1       -0.3313
      2 O           3.4030   -4.8762    0.0000 O.3     1  UNL1       -0.3865
      3 O           5.1350   -5.8762    0.0000 O.3     1  UNL1       -0.3864
      4 O           6.8671   -2.8762    0.0000 O.3     1  UNL1       -0.4608
      5 O           6.8671   -4.8762    0.0000 O.3     1  UNL1       -0.3829
      6 O           2.5369   -3.3762    0.0000 O.3     1  UNL1       -0.3924
      7 O           7.7671    1.6480    0.0000 O.2     1  UNL1       -0.4544
      8 O           7.7666    5.6896    0.0000 O.3     1  UNL1       -0.4885
      9 O           9.4948    4.6829    0.0000 O.3     1  UNL1       -0.4912
     10 O           6.0308    4.6963    0.0000 O.3     1  UNL1       -0.5027
     11 O           5.1208    3.2029    0.0000 O.2     1  UNL1       -0.2869
     12 C           4.2690   -4.3762    0.0000 C.3     1  UNL1        0.1120
     13 C           5.1350   -4.8762    0.0000 C.3     1  UNL1        0.1152
     14 C           4.2690   -3.3762    0.0000 C.3     1  UNL1        0.1140
     15 C           6.0010   -4.3762    0.0000 C.3     1  UNL1        0.1454
     16 C           6.0010   -3.3762    0.0000 C.3     1  UNL1        0.2308
     17 C           3.4030   -2.8762    0.0000 C.3     1  UNL1        0.0731
     18 C           6.8671   -1.8762    0.0000 C.ar    1  UNL1        0.1240
     19 C           7.7331   -1.3762    0.0000 C.ar    1  UNL1       -0.0192
     20 C           6.0010   -1.3762    0.0000 C.ar    1  UNL1       -0.0192
     21 C           6.8671    0.1238    0.0000 C.ar    1  UNL1        0.0176
     22 C           7.7331   -0.3762    0.0000 C.ar    1  UNL1       -0.0476
     23 C           6.0010   -0.3762    0.0000 C.ar    1  UNL1       -0.0476
     24 C           6.8671    1.1238    0.0000 C.ar    1  UNL1        0.1392
     25 C           6.8910    3.1929    0.0000 C.ar    1  UNL1        0.1091
     26 C           7.7551    2.6896    0.0000 C.ar    1  UNL1        0.1465
     27 C           5.9670    1.6480    0.0000 C.ar    1  UNL1        0.0288
     28 C           5.9790    2.6896    0.0000 C.ar    1  UNL1        0.1967
     29 C           6.8948    4.1929    0.0000 C.ar    1  UNL1        0.1768
     30 C           8.6230    3.1863    0.0000 C.ar    1  UNL1        0.0270
     31 C           7.7628    4.6896    0.0000 C.ar    1  UNL1        0.2043
     32 C           8.6269    4.1863    0.0000 C.ar    1  UNL1        0.1687
     33 C           8.6346    6.1862    0.0000 C.3     1  UNL1        0.0791
     34 C          10.3589    4.1796    0.0000 C.3     1  UNL1        0.0790
     35 H           4.2690   -4.9962    0.0000 H       1  UNL1        0.0647
     36 H           4.5981   -5.1862    0.0000 H       1  UNL1        0.0648
     37 H           4.2690   -2.7562    0.0000 H       1  UNL1        0.0647
     38 H           6.0010   -4.9962    0.0000 H       1  UNL1        0.0683
     39 H           6.0010   -2.7562    0.0000 H       1  UNL1        0.1084
     40 H           3.8015   -2.4013    0.0000 H       1  UNL1        0.0584
     41 H           3.0044   -2.4013    0.0000 H       1  UNL1        0.0584
     42 H           3.4030   -5.4962    0.0000 H       1  UNL1        0.2100
     43 H           5.6720   -6.1862    0.0000 H       1  UNL1        0.2100
     44 H           7.4040   -4.5662    0.0000 H       1  UNL1        0.2102
     45 H           2.0000   -3.0662    0.0000 H       1  UNL1        0.2095
     46 H           8.2700   -1.6862    0.0000 H       1  UNL1        0.0654
     47 H           5.4641   -1.6862    0.0000 H       1  UNL1        0.0654
     48 H           8.2700   -0.0662    0.0000 H       1  UNL1        0.0626
     49 H           5.4641   -0.0662    0.0000 H       1  UNL1        0.0626
     50 H           5.4277    1.3422    0.0000 H       1  UNL1        0.0693
     51 H           9.1588    2.8742    0.0000 H       1  UNL1        0.0692
     52 H           6.0331    5.3163    0.0000 H       1  UNL1        0.2923
     53 H           8.9425    5.6481    0.0000 H       1  UNL1        0.0660
     54 H           9.1727    6.4942    0.0000 H       1  UNL1        0.0660
     55 H           8.3267    6.7244    0.0000 H       1  UNL1        0.0660
     56 H          10.0469    3.6438    0.0000 H       1  UNL1        0.0660
     57 H          10.8947    3.8675    0.0000 H       1  UNL1        0.0660
     58 H          10.6710    4.7153    0.0000 H       1  UNL1        0.0660
@<TRIPOS>BOND
     1     1    14    1
     2     1    16    1
     3    12     2    1
     4     2    42    1
     5    13     3    1
     6     3    43    1
     7    16     4    1
     8     4    18    1
     9    15     5    1
    10     5    44    1
    11     6    17    1
    12     6    45    1
    13     7    24   ar
    14     7    26   ar
    15     8    31    1
    16     8    33    1
    17     9    32    1
    18     9    34    1
    19    10    29    1
    20    10    52    1
    21    11    28    2
    22    12    13    1
    23    12    14    1
    24    12    35    1
    25    13    15    1
    26    13    36    1
    27    14    17    1
    28    14    37    1
    29    15    16    1
    30    15    38    1
    31    16    39    1
    32    17    40    1
    33    17    41    1
    34    18    19   ar
    35    18    20   ar
    36    19    22   ar
    37    19    46    1
    38    20    23   ar
    39    20    47    1
    40    21    22   ar
    41    21    23   ar
    42    21    24    1
    43    22    48    1
    44    23    49    1
    45    24    27   ar
    46    25    26   ar
    47    25    28   ar
    48    25    29   ar
    49    26    30   ar
    50    27    28   ar
    51    27    50    1
    52    29    31   ar
    53    30    32   ar
    54    30    51    1
    55    31    32   ar
    56    33    53    1
    57    33    54    1
    58    33    55    1
    59    34    56    1
    60    34    57    1
    61    34    58    1
