@<TRIPOS>MOLECULE
IMPHY009782
 61 63 0 0 0
SMALL
GASTEIGER

@<TRIPOS>ATOM
      1 O           9.5453    1.7226    0.0000 O.3     1  UNL1       -0.4567
      2 O           6.8671   -0.9726    0.0000 O.3     1  UNL1       -0.3408
      3 O           5.1350   -0.9726    0.0000 O.3     1  UNL1       -0.3405
      4 O           6.8671   -2.9726    0.0000 O.3     1  UNL1       -0.3841
      5 O           5.1350   -3.9726    0.0000 O.3     1  UNL1       -0.3864
      6 O           3.4030   -2.9726    0.0000 O.3     1  UNL1       -0.3865
      7 O          11.1289    2.5274    0.0000 O.2     1  UNL1       -0.2505
      8 O           2.5369   -1.4726    0.0000 O.3     1  UNL1       -0.3924
      9 C           8.5991    3.0274    0.0000 C.3     1  UNL1        0.0128
     10 C           8.5991    2.0274    0.0000 C.3     1  UNL1        0.1251
     11 C           9.5453    3.3321    0.0000 C.3     1  UNL1        0.0601
     12 C           7.7331    3.5274    0.0000 C.3     1  UNL1       -0.0421
     13 C           6.0010   -1.4726    0.0000 C.3     1  UNL1        0.1886
     14 C           6.0010   -2.4726    0.0000 C.3     1  UNL1        0.1341
     15 C           5.1350   -2.9726    0.0000 C.3     1  UNL1        0.1141
     16 C           6.8671    0.0274    0.0000 C.3     1  UNL1        0.0861
     17 C           4.2690   -2.4726    0.0000 C.3     1  UNL1        0.1119
     18 C           6.8671    3.0274    0.0000 C.3     1  UNL1       -0.0316
     19 C           7.7331    1.5274    0.0000 C.2     1  UNL1       -0.0423
     20 C          10.1289    2.5274    0.0000 C.2     1  UNL1        0.3109
     21 C           4.2690   -1.4726    0.0000 C.3     1  UNL1        0.1130
     22 C           7.7331    0.5274    0.0000 C.2     1  UNL1       -0.0444
     23 C           9.8560    4.2826    0.0000 C.3     1  UNL1       -0.0519
     24 C           6.0010    0.5274    0.0000 C.3     1  UNL1       -0.0042
     25 C           6.8671    2.0274    0.0000 C.2     1  UNL1       -0.0764
     26 C           6.0010    1.5274    0.0000 C.2     1  UNL1       -0.0823
     27 C           3.4030   -0.9726    0.0000 C.3     1  UNL1        0.0730
     28 C           8.5991    0.0274    0.0000 C.3     1  UNL1       -0.0412
     29 C           8.0544    1.0310    0.0000 C.3     1  UNL1       -0.0438
     30 H           8.6891    3.8726    0.0000 H       1  UNL1        0.0348
     31 H           8.6891    1.1822    0.0000 H       1  UNL1        0.0782
     32 H          10.1578    3.4283    0.0000 H       1  UNL1        0.0415
     33 H           8.1316    4.0023    0.0000 H       1  UNL1        0.0272
     34 H           7.3346    4.0023    0.0000 H       1  UNL1        0.0272
     35 H           6.0010   -3.0926    0.0000 H       1  UNL1        0.0671
     36 H           6.0010   -0.8526    0.0000 H       1  UNL1        0.0938
     37 H           4.5981   -3.2826    0.0000 H       1  UNL1        0.0648
     38 H           3.7320   -2.1626    0.0000 H       1  UNL1        0.0647
     39 H           7.4040   -0.2826    0.0000 H       1  UNL1        0.0647
     40 H           6.6550    3.6100    0.0000 H       1  UNL1        0.0310
     41 H           6.2565    2.9197    0.0000 H       1  UNL1        0.0310
     42 H           7.5210    2.1100    0.0000 H       1  UNL1        0.0609
     43 H           4.2690   -0.8526    0.0000 H       1  UNL1        0.0647
     44 H          10.4453    4.0900    0.0000 H       1  UNL1        0.0238
     45 H          10.0486    4.8720    0.0000 H       1  UNL1        0.0238
     46 H           9.2667    4.4752    0.0000 H       1  UNL1        0.0238
     47 H           5.3905    0.6350    0.0000 H       1  UNL1        0.0336
     48 H           5.7890   -0.0552    0.0000 H       1  UNL1        0.0336
     49 H           5.4641    1.8374    0.0000 H       1  UNL1        0.0572
     50 H           3.8015   -0.4977    0.0000 H       1  UNL1        0.0584
     51 H           3.0044   -0.4977    0.0000 H       1  UNL1        0.0584
     52 H           8.2891   -0.5096    0.0000 H       1  UNL1        0.0275
     53 H           9.1360   -0.2826    0.0000 H       1  UNL1        0.0275
     54 H           8.9091    0.5643    0.0000 H       1  UNL1        0.0275
     55 H           6.8671   -3.5926    0.0000 H       1  UNL1        0.2101
     56 H           7.6559    0.5561    0.0000 H       1  UNL1        0.0274
     57 H           8.5294    0.6325    0.0000 H       1  UNL1        0.0274
     58 H           8.4530    1.5060    0.0000 H       1  UNL1        0.0274
     59 H           4.5981   -4.2826    0.0000 H       1  UNL1        0.2100
     60 H           3.4030   -3.5926    0.0000 H       1  UNL1        0.2100
     61 H           2.0000   -1.1626    0.0000 H       1  UNL1        0.2095
@<TRIPOS>BOND
     1     1    10    1
     2     1    20    1
     3    13     2    1
     4    16     2    1
     5     3    13    1
     6     3    21    1
     7    14     4    1
     8     4    55    1
     9    15     5    1
    10     5    59    1
    11    17     6    1
    12     6    60    1
    13     7    20    2
    14     8    27    1
    15     8    61    1
    16     9    10    1
    17     9    11    1
    18     9    12    1
    19     9    30    1
    20    10    19    1
    21    10    31    1
    22    11    20    1
    23    11    23    1
    24    11    32    1
    25    12    18    1
    26    12    33    1
    27    12    34    1
    28    13    14    1
    29    13    36    1
    30    14    15    1
    31    14    35    1
    32    15    17    1
    33    15    37    1
    34    16    22    1
    35    16    24    1
    36    16    39    1
    37    17    21    1
    38    17    38    1
    39    18    25    1
    40    18    40    1
    41    18    41    1
    42    19    22    2
    43    19    42    1
    44    21    27    1
    45    21    43    1
    46    22    28    1
    47    23    44    1
    48    23    45    1
    49    23    46    1
    50    24    26    1
    51    24    47    1
    52    24    48    1
    53    25    26    2
    54    25    29    1
    55    26    49    1
    56    27    50    1
    57    27    51    1
    58    28    52    1
    59    28    53    1
    60    28    54    1
    61    29    56    1
    62    29    57    1
    63    29    58    1
