@<TRIPOS>MOLECULE
IMPHY006662
 27 29 0 0 0
SMALL
GASTEIGER

@<TRIPOS>ATOM
      1 O           4.6783   -0.3833    0.0000 O.3     1  UNL1       -0.4514
      2 O           4.9889    2.1767    0.0000 O.2     1  UNL1       -0.2832
      3 C           3.7320    0.9214    0.0000 C.ar    1  UNL1        0.0676
      4 C           3.7320   -0.0786    0.0000 C.ar    1  UNL1        0.1395
      5 C           5.2619    0.4214    0.0000 C.2     1  UNL1        0.1761
      6 C           4.6783    1.2261    0.0000 C.2     1  UNL1        0.2315
      7 C           6.2619    0.4214    0.0000 C.2     1  UNL1       -0.0083
      8 C           2.8660    1.4214    0.0000 C.ar    1  UNL1       -0.0473
      9 C           6.7619   -0.4446    0.0000 C.ar    1  UNL1       -0.0214
     10 C           2.8660   -0.5786    0.0000 C.ar    1  UNL1       -0.0186
     11 C           2.0000    0.9214    0.0000 C.ar    1  UNL1       -0.0609
     12 C           2.0000   -0.0786    0.0000 C.ar    1  UNL1       -0.0582
     13 C           6.2619   -1.3106    0.0000 C.ar    1  UNL1       -0.0545
     14 C           7.7619   -0.4446    0.0000 C.ar    1  UNL1       -0.0545
     15 C           6.7619   -2.1767    0.0000 C.ar    1  UNL1       -0.0612
     16 C           8.2619   -1.3106    0.0000 C.ar    1  UNL1       -0.0612
     17 C           7.7619   -2.1767    0.0000 C.ar    1  UNL1       -0.0617
     18 H           6.5719    0.9583    0.0000 H       1  UNL1        0.0661
     19 H           2.8660    2.0414    0.0000 H       1  UNL1        0.0626
     20 H           2.8660   -1.1986    0.0000 H       1  UNL1        0.0654
     21 H           1.4631    1.2314    0.0000 H       1  UNL1        0.0618
     22 H           1.4631   -0.3886    0.0000 H       1  UNL1        0.0619
     23 H           5.6419   -1.3106    0.0000 H       1  UNL1        0.0623
     24 H           8.0719    0.0923    0.0000 H       1  UNL1        0.0623
     25 H           6.4519   -2.7136    0.0000 H       1  UNL1        0.0618
     26 H           8.8819   -1.3106    0.0000 H       1  UNL1        0.0618
     27 H           8.0719   -2.7136    0.0000 H       1  UNL1        0.0618
@<TRIPOS>BOND
     1     1     4    1
     2     1     5    1
     3     2     6    2
     4     3     4   ar
     5     3     6    1
     6     3     8   ar
     7     4    10   ar
     8     5     6    1
     9     5     7    2
    10     7     9    1
    11     7    18    1
    12     8    11   ar
    13     8    19    1
    14     9    13   ar
    15     9    14   ar
    16    10    12   ar
    17    10    20    1
    18    11    12   ar
    19    11    21    1
    20    12    22    1
    21    13    15   ar
    22    13    23    1
    23    14    16   ar
    24    14    24    1
    25    15    17   ar
    26    15    25    1
    27    16    17   ar
    28    16    26    1
    29    17    27    1
