@<TRIPOS>MOLECULE
IMPHY001317
 63 60 0 0 0
SMALL
GASTEIGER

@<TRIPOS>ATOM
      1 CA         11.1972   -0.4050    0.0000 Ca      1  UNL1        0.0000
      2 O           5.1350    1.0950    0.0000 O.3     2  UNL2        0.0000
      3 O          17.2594    1.0950    0.0000 O.3     3  UNL3        0.0000
      4 O           2.5369   -0.4050    0.0000 O.3     2  UNL2        0.0000
      5 O          19.8574   -0.4050    0.0000 O.3     3  UNL3        0.0000
      6 O           6.0010   -1.4050    0.0000 O.2     2  UNL2        0.0000
      7 O          16.3933   -1.4050    0.0000 O.2     3  UNL3        0.0000
      8 O          10.3312    0.0950    0.0000 O.co2   2  UNL2       -0.5000
      9 O           9.4651   -1.4050    0.0000 O.co2   2  UNL2       -0.5000
     10 O          12.0632    0.0950    0.0000 O.co2   3  UNL3       -0.5000
     11 O          12.9292   -1.4050    0.0000 O.co2   3  UNL3       -0.5000
     12 N           6.8671    0.0950    0.0000 N.am    2  UNL2        0.0000
     13 N          15.5273    0.0950    0.0000 N.am    3  UNL3        0.0000
     14 C           4.2690   -0.4050    0.0000 C.3     2  UNL2        0.0000
     15 C          18.1254   -0.4050    0.0000 C.3     3  UNL3        0.0000
     16 C           5.1350    0.0950    0.0000 C.3     2  UNL2        0.0000
     17 C          17.2594    0.0950    0.0000 C.3     3  UNL3        0.0000
     18 C           3.4030   -0.9050    0.0000 C.3     2  UNL2        0.0000
     19 C          18.9914   -0.9050    0.0000 C.3     3  UNL3        0.0000
     20 C           3.7690    0.4610    0.0000 C.3     2  UNL2        0.0000
     21 C           4.7690   -1.2710    0.0000 C.3     2  UNL2        0.0000
     22 C          18.6254    0.4610    0.0000 C.3     3  UNL3        0.0000
     23 C          17.6254   -1.2710    0.0000 C.3     3  UNL3        0.0000
     24 C           6.0010   -0.4050    0.0000 C.2     2  UNL2        0.0000
     25 C          16.3933   -0.4050    0.0000 C.2     3  UNL3        0.0000
     26 C           7.7331   -0.4050    0.0000 C.3     2  UNL2        0.0000
     27 C          14.6613   -0.4050    0.0000 C.3     3  UNL3        0.0000
     28 C           8.5991    0.0950    0.0000 C.3     2  UNL2        0.0000
     29 C          13.7953    0.0950    0.0000 C.3     3  UNL3        0.0000
     30 C           9.4651   -0.4050    0.0000 C.2     2  UNL2        0.0000
     31 C          12.9292   -0.4050    0.0000 C.2     3  UNL3        0.0000
     32 H           5.6720    0.4050    0.0000 H       2  UNL2        0.0000
     33 H          16.7224    0.4050    0.0000 H       3  UNL3        0.0000
     34 H           3.0044   -1.3800    0.0000 H       2  UNL2        0.0000
     35 H           3.8015   -1.3800    0.0000 H       2  UNL2        0.0000
     36 H          18.5929   -1.3800    0.0000 H       3  UNL3        0.0000
     37 H          19.3899   -1.3800    0.0000 H       3  UNL3        0.0000
     38 H           4.2320   -1.5810    0.0000 H       2  UNL2        0.0000
     39 H           5.0790   -1.8080    0.0000 H       2  UNL2        0.0000
     40 H           5.3059   -0.9610    0.0000 H       2  UNL2        0.0000
     41 H           4.3059    0.7710    0.0000 H       2  UNL2        0.0000
     42 H           3.4590    0.9980    0.0000 H       2  UNL2        0.0000
     43 H           3.2320    0.1510    0.0000 H       2  UNL2        0.0000
     44 H          17.0885   -0.9610    0.0000 H       3  UNL3        0.0000
     45 H          17.3154   -1.8080    0.0000 H       3  UNL3        0.0000
     46 H          19.1623    0.1510    0.0000 H       3  UNL3        0.0000
     47 H          18.9354    0.9980    0.0000 H       3  UNL3        0.0000
     48 H          18.0885    0.7710    0.0000 H       3  UNL3        0.0000
     49 H          18.1623   -1.5810    0.0000 H       3  UNL3        0.0000
     50 H           5.6720    1.4050    0.0000 H       2  UNL2        0.0000
     51 H          17.7963    1.4050    0.0000 H       3  UNL3        0.0000
     52 H           6.8671    0.7150    0.0000 H       2  UNL2        0.0000
     53 H          15.5273    0.7150    0.0000 H       3  UNL3        0.0000
     54 H           2.0000   -0.7150    0.0000 H       2  UNL2        0.0000
     55 H          20.3944   -0.7150    0.0000 H       3  UNL3        0.0000
     56 H           7.3346   -0.8799    0.0000 H       2  UNL2        0.0000
     57 H           8.1316   -0.8799    0.0000 H       2  UNL2        0.0000
     58 H          14.2628   -0.8799    0.0000 H       3  UNL3        0.0000
     59 H          15.0598   -0.8799    0.0000 H       3  UNL3        0.0000
     60 H           8.9976    0.5699    0.0000 H       2  UNL2        0.0000
     61 H           8.2006    0.5699    0.0000 H       2  UNL2        0.0000
     62 H          14.1938    0.5699    0.0000 H       3  UNL3        0.0000
     63 H          13.3967    0.5699    0.0000 H       3  UNL3        0.0000
@<TRIPOS>UNITY_ATOM_ATTR
1 1
charge 2
8 1
charge -1
10 1
charge -1
@<TRIPOS>BOND
     1    16     2    1
     2     2    50    1
     3    17     3    1
     4     3    51    1
     5     4    18    1
     6     4    54    1
     7     5    19    1
     8     5    55    1
     9     6    24    2
    10     7    25    2
    11     8    30   ar
    12     9    30   ar
    13    10    31   ar
    14    11    31   ar
    15    12    24   am
    16    12    26    1
    17    12    52    1
    18    13    25   am
    19    13    27    1
    20    13    53    1
    21    14    16    1
    22    14    18    1
    23    14    20    1
    24    14    21    1
    25    15    17    1
    26    15    19    1
    27    15    22    1
    28    15    23    1
    29    16    24    1
    30    16    32    1
    31    17    25    1
    32    17    33    1
    33    18    34    1
    34    18    35    1
    35    19    36    1
    36    19    37    1
    37    20    41    1
    38    20    42    1
    39    20    43    1
    40    21    38    1
    41    21    39    1
    42    21    40    1
    43    22    46    1
    44    22    47    1
    45    22    48    1
    46    23    44    1
    47    23    45    1
    48    23    49    1
    49    26    28    1
    50    26    56    1
    51    26    57    1
    52    27    29    1
    53    27    58    1
    54    27    59    1
    55    28    30    1
    56    28    60    1
    57    28    61    1
    58    29    31    1
    59    29    62    1
    60    29    63    1
