@<TRIPOS>MOLECULE
IMPHY012452
 80 84 0 0 0
SMALL
GASTEIGER

@<TRIPOS>ATOM
      1 O           6.8671    2.2694    0.0000 O.3     1  UNL1       -0.3095
      2 O           9.4893    2.8783    0.0000 O.3     1  UNL1       -0.3883
      3 O           6.0010    3.7694    0.0000 O.2     1  UNL1       -0.4701
      4 O           5.1350    2.2694    0.0000 O.3     1  UNL1       -0.3404
      5 O           6.8671    0.2694    0.0000 O.3     1  UNL1       -0.3378
      6 O           6.0580   -1.3184    0.0000 O.3     1  UNL1       -0.3456
      7 O           5.1350   -0.7306    0.0000 O.3     1  UNL1       -0.3864
      8 O           3.4030    0.2694    0.0000 O.3     1  UNL1       -0.3865
      9 O           6.0010    6.7694    0.0000 O.3     1  UNL1       -0.4773
     10 O           7.7331    6.7694    0.0000 O.2     1  UNL1       -0.2454
     11 O           8.6271   -1.0094    0.0000 O.3     1  UNL1       -0.3837
     12 O           8.3181   -2.5784    0.0000 O.3     1  UNL1       -0.3801
     13 O           2.5369    1.7694    0.0000 O.3     1  UNL1       -0.3924
     14 O           6.5010   -3.7694    0.0000 O.3     1  UNL1       -0.4581
     15 O           7.3671   -5.2694    0.0000 O.2     1  UNL1       -0.2450
     16 O           3.0369   -6.7694    0.0000 O.3     1  UNL1       -0.5068
     17 C           7.7331    3.7694    0.0000 C.3     1  UNL1        0.0572
     18 C           8.6793    3.4647    0.0000 C.3     1  UNL1        0.0724
     19 C           7.7331    4.7694    0.0000 C.3     1  UNL1        0.0050
     20 C           9.2629    4.2694    0.0000 C.3     1  UNL1       -0.0232
     21 C           8.6793    5.0742    0.0000 C.3     1  UNL1       -0.0427
     22 C           6.8671    3.2694    0.0000 C.3     1  UNL1        0.2094
     23 C           6.8671    5.2694    0.0000 C.2     1  UNL1        0.0742
     24 C           8.3719    2.5131    0.0000 C.3     1  UNL1       -0.0356
     25 C           6.0010    1.7694    0.0000 C.3     1  UNL1        0.1922
     26 C           6.0010    4.7694    0.0000 C.2     1  UNL1        0.0981
     27 C           6.0010    0.7694    0.0000 C.3     1  UNL1        0.1408
     28 C           5.1350    0.2694    0.0000 C.3     1  UNL1        0.1144
     29 C           4.2690    0.7694    0.0000 C.3     1  UNL1        0.1119
     30 C           4.2690    1.7694    0.0000 C.3     1  UNL1        0.1130
     31 C           6.8671    6.2694    0.0000 C.2     1  UNL1        0.3360
     32 C           6.8671   -0.7306    0.0000 C.3     1  UNL1        0.1885
     33 C           7.6761   -1.3184    0.0000 C.3     1  UNL1        0.1398
     34 C           7.3671   -2.2694    0.0000 C.3     1  UNL1        0.1534
     35 C           6.3671   -2.2694    0.0000 C.3     1  UNL1        0.0853
     36 C           3.4030    2.2694    0.0000 C.3     1  UNL1        0.0730
     37 C           7.3671   -3.2694    0.0000 C.3     1  UNL1        0.1262
     38 C           6.5010   -4.7694    0.0000 C.2     1  UNL1        0.3393
     39 C           5.6350   -5.2694    0.0000 C.ar    1  UNL1        0.0592
     40 C           4.7690   -4.7694    0.0000 C.ar    1  UNL1       -0.0443
     41 C           5.6350   -6.2694    0.0000 C.ar    1  UNL1       -0.0443
     42 C           3.9030   -5.2694    0.0000 C.ar    1  UNL1       -0.0194
     43 C           4.7690   -6.7694    0.0000 C.ar    1  UNL1       -0.0194
     44 C           3.9030   -6.2694    0.0000 C.ar    1  UNL1        0.1169
     45 H           7.7987    3.1529    0.0000 H       1  UNL1        0.0395
     46 H           7.7987    5.3859    0.0000 H       1  UNL1        0.0358
     47 H           9.7238    3.8547    0.0000 H       1  UNL1        0.0293
     48 H           9.7238    4.6842    0.0000 H       1  UNL1        0.0293
     49 H           9.2167    5.3834    0.0000 H       1  UNL1        0.0272
     50 H           8.4283    5.6411    0.0000 H       1  UNL1        0.0272
     51 H           7.4040    2.9594    0.0000 H       1  UNL1        0.1060
     52 H           7.7820    2.7037    0.0000 H       1  UNL1        0.0257
     53 H           8.1814    1.9231    0.0000 H       1  UNL1        0.0257
     54 H           8.9619    2.3225    0.0000 H       1  UNL1        0.0257
     55 H           6.0010    2.3894    0.0000 H       1  UNL1        0.0939
     56 H          10.0553    3.1315    0.0000 H       1  UNL1        0.2102
     57 H           6.0010    0.1494    0.0000 H       1  UNL1        0.0675
     58 H           5.4641    5.0794    0.0000 H       1  UNL1        0.1029
     59 H           4.5981   -0.0406    0.0000 H       1  UNL1        0.0648
     60 H           4.2690    0.1494    0.0000 H       1  UNL1        0.0647
     61 H           4.2690    2.3894    0.0000 H       1  UNL1        0.0647
     62 H           7.4195   -0.4491    0.0000 H       1  UNL1        0.0938
     63 H           7.7731   -0.7060    0.0000 H       1  UNL1        0.0675
     64 H           5.7606   -2.3983    0.0000 H       1  UNL1        0.0591
     65 H           6.4319   -2.8860    0.0000 H       1  UNL1        0.0591
     66 H           3.8015    2.7444    0.0000 H       1  UNL1        0.0584
     67 H           3.0044    2.7444    0.0000 H       1  UNL1        0.0584
     68 H           7.5791   -3.8520    0.0000 H       1  UNL1        0.0728
     69 H           7.9776   -3.1618    0.0000 H       1  UNL1        0.0728
     70 H           4.5981   -1.0406    0.0000 H       1  UNL1        0.2100
     71 H           3.4030   -0.3506    0.0000 H       1  UNL1        0.2100
     72 H           6.0010    7.3894    0.0000 H       1  UNL1        0.2954
     73 H           8.7560   -0.4029    0.0000 H       1  UNL1        0.2101
     74 H           8.4470   -3.1849    0.0000 H       1  UNL1        0.2105
     75 H           2.0000    2.0794    0.0000 H       1  UNL1        0.2095
     76 H           4.7690   -4.1494    0.0000 H       1  UNL1        0.0627
     77 H           6.1720   -6.5794    0.0000 H       1  UNL1        0.0627
     78 H           3.3660   -4.9594    0.0000 H       1  UNL1        0.0654
     79 H           4.7690   -7.3894    0.0000 H       1  UNL1        0.0654
     80 H           3.0369   -7.3894    0.0000 H       1  UNL1        0.2921
@<TRIPOS>BOND
     1     1    22    1
     2     1    25    1
     3     2    18    1
     4     2    56    1
     5     3    22    1
     6     3    26    1
     7     4    25    1
     8     4    30    1
     9     5    27    1
    10     5    32    1
    11     6    32    1
    12     6    35    1
    13     7    28    1
    14     7    70    1
    15     8    29    1
    16     8    71    1
    17     9    31    1
    18     9    72    1
    19    10    31    2
    20    11    33    1
    21    11    73    1
    22    12    34    1
    23    12    74    1
    24    13    36    1
    25    13    75    1
    26    14    37    1
    27    14    38    1
    28    15    38    2
    29    16    44    1
    30    16    80    1
    31    17    18    1
    32    17    19    1
    33    17    22    1
    34    17    45    1
    35    18    20    1
    36    18    24    1
    37    19    21    1
    38    19    23    1
    39    19    46    1
    40    20    21    1
    41    20    47    1
    42    20    48    1
    43    21    49    1
    44    21    50    1
    45    22    51    1
    46    23    26    2
    47    23    31    1
    48    24    52    1
    49    24    53    1
    50    24    54    1
    51    25    27    1
    52    25    55    1
    53    26    58    1
    54    27    28    1
    55    27    57    1
    56    28    29    1
    57    28    59    1
    58    29    30    1
    59    29    60    1
    60    30    36    1
    61    30    61    1
    62    32    33    1
    63    32    62    1
    64    33    34    1
    65    33    63    1
    66    34    35    1
    67    34    37    1
    68    35    64    1
    69    35    65    1
    70    36    66    1
    71    36    67    1
    72    37    68    1
    73    37    69    1
    74    38    39    1
    75    39    40   ar
    76    39    41   ar
    77    40    42   ar
    78    40    76    1
    79    41    43   ar
    80    41    77    1
    81    42    44   ar
    82    42    78    1
    83    43    44   ar
    84    43    79    1
