@<TRIPOS>MOLECULE
IMPHY017664
 39 41 0 0 0
SMALL
GASTEIGER

@<TRIPOS>ATOM
      1 O           2.0000   -0.7846    0.0000 O.3     1  UNL1       -0.4569
      2 O           2.2729    0.9706    0.0000 O.2     1  UNL1       -0.2453
      3 C           5.2619   -0.2846    0.0000 C.3     1  UNL1       -0.0260
      4 C           4.3958    0.2154    0.0000 C.3     1  UNL1        0.0031
      5 C           6.1719    0.2222    0.0000 C.3     1  UNL1       -0.0312
      6 C           4.3798    1.2569    0.0000 C.3     1  UNL1       -0.0431
      7 C           5.2619   -1.2846    0.0000 C.3     1  UNL1       -0.0451
      8 C           6.1799    1.2638    0.0000 C.3     1  UNL1       -0.0476
      9 C           5.2778    1.7846    0.0000 C.3     1  UNL1       -0.0518
     10 C           3.5298   -0.2846    0.0000 C.2     1  UNL1        0.0452
     11 C           4.3958   -1.7846    0.0000 C.3     1  UNL1       -0.0275
     12 C           3.5298    0.7154    0.0000 C.3     1  UNL1       -0.0550
     13 C           3.5298   -1.2846    0.0000 C.2     1  UNL1       -0.0221
     14 C           7.1718    0.2107    0.0000 C.3     1  UNL1       -0.0595
     15 C           6.6618   -0.6495    0.0000 C.3     1  UNL1       -0.0595
     16 C           2.5836   -1.5894    0.0000 C.3     1  UNL1        0.1147
     17 C           2.5836    0.0201    0.0000 C.2     1  UNL1        0.3361
     18 H           5.9947   -0.7153    0.0000 H       1  UNL1        0.0314
     19 H           4.1618    1.8373    0.0000 H       1  UNL1        0.0274
     20 H           3.7706    1.1414    0.0000 H       1  UNL1        0.0274
     21 H           5.4739   -1.8672    0.0000 H       1  UNL1        0.0271
     22 H           5.8725   -1.1770    0.0000 H       1  UNL1        0.0271
     23 H           6.7899    1.1530    0.0000 H       1  UNL1        0.0271
     24 H           6.3935    1.8459    0.0000 H       1  UNL1        0.0271
     25 H           5.6751    2.2606    0.0000 H       1  UNL1        0.0266
     26 H           4.8769    2.2575    0.0000 H       1  UNL1        0.0266
     27 H           3.9973   -2.2596    0.0000 H       1  UNL1        0.0311
     28 H           4.7944   -2.2596    0.0000 H       1  UNL1        0.0311
     29 H           3.8398    1.2523    0.0000 H       1  UNL1        0.0238
     30 H           2.9929    1.0254    0.0000 H       1  UNL1        0.0238
     31 H           3.2198    0.1784    0.0000 H       1  UNL1        0.0238
     32 H           7.1646   -0.4093    0.0000 H       1  UNL1        0.0235
     33 H           7.7918    0.2035    0.0000 H       1  UNL1        0.0235
     34 H           7.1790    0.8306    0.0000 H       1  UNL1        0.0235
     35 H           6.1213   -0.9533    0.0000 H       1  UNL1        0.0235
     36 H           6.9656   -1.1900    0.0000 H       1  UNL1        0.0235
     37 H           7.2023   -0.3458    0.0000 H       1  UNL1        0.0235
     38 H           2.0462   -1.8986    0.0000 H       1  UNL1        0.0746
     39 H           2.8346   -2.1563    0.0000 H       1  UNL1        0.0746
@<TRIPOS>BOND
     1     1    16    1
     2     1    17    1
     3     2    17    2
     4     3     4    1
     5     3     5    1
     6     3     7    1
     7     3    18    1
     8     4     6    1
     9     4    10    1
    10     4    12    1
    11     5     8    1
    12     5    14    1
    13     5    15    1
    14     6     9    1
    15     6    19    1
    16     6    20    1
    17     7    11    1
    18     7    21    1
    19     7    22    1
    20     8     9    1
    21     8    23    1
    22     8    24    1
    23     9    25    1
    24     9    26    1
    25    10    13    2
    26    10    17    1
    27    11    13    1
    28    11    27    1
    29    11    28    1
    30    12    29    1
    31    12    30    1
    32    12    31    1
    33    13    16    1
    34    14    32    1
    35    14    33    1
    36    14    34    1
    37    15    35    1
    38    15    36    1
    39    15    37    1
    40    16    38    1
    41    16    39    1
