@<TRIPOS>MOLECULE
IMPHY000124
 56 58 0 0 0
SMALL
GASTEIGER

@<TRIPOS>ATOM
      1 O           3.9057   -0.6237    0.0000 O.3     1  UNL1       -0.3877
      2 O           3.7320    3.3612    0.0000 O.3     1  UNL1       -0.3915
      3 O           6.9819    3.2791    0.0000 O.3     1  UNL1       -0.3945
      4 O           2.8956   -3.8196    0.0000 O.2     1  UNL1       -0.4708
      5 C           4.5981    0.8611    0.0000 C.3     1  UNL1        0.0027
      6 C           4.5981    1.8612    0.0000 C.3     1  UNL1        0.0005
      7 C           3.7320    0.3611    0.0000 C.3     1  UNL1        0.0747
      8 C           5.4920    2.3958    0.0000 C.3     1  UNL1       -0.0032
      9 C           3.7320    2.3612    0.0000 C.3     1  UNL1        0.0595
     10 C           5.4920    0.3265    0.0000 C.3     1  UNL1       -0.0446
     11 C           2.8660    0.8611    0.0000 C.3     1  UNL1       -0.0121
     12 C           2.8660    1.8612    0.0000 C.3     1  UNL1       -0.0213
     13 C           6.3981    1.8820    0.0000 C.3     1  UNL1       -0.0452
     14 C           6.3981    0.8403    0.0000 C.3     1  UNL1       -0.0519
     15 C           4.9402   -0.0785    0.0000 C.3     1  UNL1       -0.0566
     16 C           3.2320   -0.5049    0.0000 C.3     1  UNL1       -0.0191
     17 C           5.9820    3.2676    0.0000 C.3     1  UNL1        0.0499
     18 C           4.9820    3.2560    0.0000 C.3     1  UNL1       -0.0571
     19 C           2.0000    0.3611    0.0000 C.3     1  UNL1       -0.0597
     20 C           3.7320   -1.3709    0.0000 C.3     1  UNL1       -0.0221
     21 C           3.2320   -2.2369    0.0000 C.ar    1  UNL1       -0.0096
     22 C           2.2375   -2.3415    0.0000 C.ar    1  UNL1       -0.0208
     23 C           3.6388   -3.1505    0.0000 C.ar    1  UNL1        0.0948
     24 C           2.0296   -3.3196    0.0000 C.ar    1  UNL1        0.0919
     25 H           4.5915    2.7111    0.0000 H       1  UNL1        0.0338
     26 H           3.1951    2.6712    0.0000 H       1  UNL1        0.0596
     27 H           5.0874   -0.1433    0.0000 H       1  UNL1        0.0272
     28 H           5.8856   -0.1525    0.0000 H       1  UNL1        0.0272
     29 H           2.8660    0.2411    0.0000 H       1  UNL1        0.0327
     30 H           2.6540    2.4438    0.0000 H       1  UNL1        0.0294
     31 H           2.2554    1.7535    0.0000 H       1  UNL1        0.0294
     32 H           7.0089    1.7759    0.0000 H       1  UNL1        0.0271
     33 H           6.6071    2.4656    0.0000 H       1  UNL1        0.0271
     34 H           6.6071    0.2566    0.0000 H       1  UNL1        0.0266
     35 H           7.0089    0.9464    0.0000 H       1  UNL1        0.0266
     36 H           4.3576   -0.2906    0.0000 H       1  UNL1        0.0236
     37 H           5.1523   -0.6611    0.0000 H       1  UNL1        0.0236
     38 H           5.5228    0.1336    0.0000 H       1  UNL1        0.0236
     39 H           2.7571   -0.1064    0.0000 H       1  UNL1        0.0296
     40 H           2.7571   -0.9034    0.0000 H       1  UNL1        0.0296
     41 H           6.0826    3.8793    0.0000 H       1  UNL1        0.0563
     42 H           5.3970    3.4729    0.0000 H       1  UNL1        0.0563
     43 H           5.5154    3.5722    0.0000 H       1  UNL1        0.0236
     44 H           4.6658    3.7893    0.0000 H       1  UNL1        0.0236
     45 H           4.4487    2.9398    0.0000 H       1  UNL1        0.0236
     46 H           1.6900    0.8981    0.0000 H       1  UNL1        0.0233
     47 H           1.4631    0.0511    0.0000 H       1  UNL1        0.0233
     48 H           2.3100   -0.1758    0.0000 H       1  UNL1        0.0233
     49 H           4.4883   -0.8357    0.0000 H       1  UNL1        0.2102
     50 H           4.2070   -1.7694    0.0000 H       1  UNL1        0.0315
     51 H           4.2070   -0.9724    0.0000 H       1  UNL1        0.0315
     52 H           3.1951    3.6712    0.0000 H       1  UNL1        0.2098
     53 H           7.2857    3.8196    0.0000 H       1  UNL1        0.2094
     54 H           1.8227   -1.8807    0.0000 H       1  UNL1        0.0652
     55 H           4.2452   -3.2794    0.0000 H       1  UNL1        0.1032
     56 H           1.4632   -3.5718    0.0000 H       1  UNL1        0.1029
@<TRIPOS>BOND
     1     7     1    1
     2     1    49    1
     3     9     2    1
     4     2    52    1
     5     3    17    1
     6     3    53    1
     7     4    23   ar
     8     4    24   ar
     9     5     6    1
    10     5     7    1
    11     5    10    1
    12     5    15    1
    13     6     8    1
    14     6     9    1
    15     6    25    1
    16     7    11    1
    17     7    16    1
    18     8    13    1
    19     8    17    1
    20     8    18    1
    21     9    12    1
    22     9    26    1
    23    10    14    1
    24    10    27    1
    25    10    28    1
    26    11    12    1
    27    11    19    1
    28    11    29    1
    29    12    30    1
    30    12    31    1
    31    13    14    1
    32    13    32    1
    33    13    33    1
    34    14    34    1
    35    14    35    1
    36    15    36    1
    37    15    37    1
    38    15    38    1
    39    16    20    1
    40    16    39    1
    41    16    40    1
    42    17    41    1
    43    17    42    1
    44    18    43    1
    45    18    44    1
    46    18    45    1
    47    19    46    1
    48    19    47    1
    49    19    48    1
    50    20    21    1
    51    20    50    1
    52    20    51    1
    53    21    22   ar
    54    21    23   ar
    55    22    24   ar
    56    22    54    1
    57    23    55    1
    58    24    56    1
