@<TRIPOS>MOLECULE
IMPHY014630
 45 46 0 0 0
SMALL
GASTEIGER

@<TRIPOS>ATOM
      1 O           5.5000   -1.0446    0.0000 O.3     1  UNL1       -0.4470
      2 O           4.5000   -1.0446    0.0000 O.3     1  UNL1       -0.3871
      3 O           6.8660   -1.6786    0.0000 O.2     1  UNL1       -0.2875
      4 O           6.8660    2.3214    0.0000 O.2     1  UNL1       -0.2918
      5 O           8.6144   -1.7132    0.0000 O.3     1  UNL1       -0.5060
      6 O           8.6144    2.3560    0.0000 O.3     1  UNL1       -0.5060
      7 O           6.0924   -2.6722    0.0000 O.2     1  UNL1       -0.2511
      8 C           6.0000   -0.1786    0.0000 C.3     1  UNL1        0.2079
      9 C           5.0000   -0.1786    0.0000 C.3     1  UNL1        0.1060
     10 C           6.0000    0.8214    0.0000 C.3     1  UNL1        0.0605
     11 C           6.8660   -0.6786    0.0000 C.2     1  UNL1        0.2138
     12 C           4.5000    0.6874    0.0000 C.3     1  UNL1       -0.0042
     13 C           7.7320   -0.1786    0.0000 C.ar    1  UNL1        0.0769
     14 C           6.8660    1.3214    0.0000 C.2     1  UNL1        0.1718
     15 C           7.7320    0.8214    0.0000 C.ar    1  UNL1        0.0730
     16 C           8.6260   -0.7132    0.0000 C.ar    1  UNL1        0.1284
     17 C           8.6260    1.3561    0.0000 C.ar    1  UNL1        0.1282
     18 C           3.5000    0.6874    0.0000 C.2     1  UNL1       -0.0827
     19 C           5.3264   -2.0294    0.0000 C.2     1  UNL1        0.3050
     20 C           9.5321   -0.1994    0.0000 C.ar    1  UNL1       -0.0160
     21 C           9.5321    0.8422    0.0000 C.ar    1  UNL1       -0.0160
     22 C           3.0000    1.5535    0.0000 C.2     1  UNL1       -0.0795
     23 C           4.3867   -2.3715    0.0000 C.3     1  UNL1        0.0333
     24 C           2.0000    1.5535    0.0000 C.3     1  UNL1       -0.0440
     25 C           3.5000    2.4195    0.0000 C.3     1  UNL1       -0.0440
     26 H           4.3800   -0.1786    0.0000 H       1  UNL1        0.0641
     27 H           5.7880    1.4040    0.0000 H       1  UNL1        0.0390
     28 H           5.3894    0.7138    0.0000 H       1  UNL1        0.0390
     29 H           5.0826    0.8995    0.0000 H       1  UNL1        0.0334
     30 H           4.3923    1.2980    0.0000 H       1  UNL1        0.0334
     31 H           3.1900    0.1505    0.0000 H       1  UNL1        0.0572
     32 H           3.8800   -1.0446    0.0000 H       1  UNL1        0.2100
     33 H          10.0678   -0.5115    0.0000 H       1  UNL1        0.0655
     34 H          10.0678    1.1543    0.0000 H       1  UNL1        0.0655
     35 H           4.1746   -1.7889    0.0000 H       1  UNL1        0.0342
     36 H           3.8041   -2.5836    0.0000 H       1  UNL1        0.0342
     37 H           4.5988   -2.9541    0.0000 H       1  UNL1        0.0342
     38 H           9.1477   -2.0294    0.0000 H       1  UNL1        0.2922
     39 H           9.1477    2.6722    0.0000 H       1  UNL1        0.2922
     40 H           2.0000    2.1735    0.0000 H       1  UNL1        0.0274
     41 H           1.3800    1.5535    0.0000 H       1  UNL1        0.0274
     42 H           2.0000    0.9335    0.0000 H       1  UNL1        0.0274
     43 H           4.0369    2.1095    0.0000 H       1  UNL1        0.0274
     44 H           3.8100    2.9564    0.0000 H       1  UNL1        0.0274
     45 H           2.9631    2.7295    0.0000 H       1  UNL1        0.0274
@<TRIPOS>BOND
     1     1     8    1
     2     1    19    1
     3     9     2    1
     4     2    32    1
     5     3    11    2
     6     4    14    2
     7     5    16    1
     8     5    38    1
     9     6    17    1
    10     6    39    1
    11     7    19    2
    12     8     9    1
    13     8    10    1
    14     8    11    1
    15     9    12    1
    16     9    26    1
    17    10    14    1
    18    10    27    1
    19    10    28    1
    20    11    13    1
    21    12    18    1
    22    12    29    1
    23    12    30    1
    24    13    15   ar
    25    13    16   ar
    26    14    15    1
    27    15    17   ar
    28    16    20   ar
    29    17    21   ar
    30    18    22    2
    31    18    31    1
    32    19    23    1
    33    20    21   ar
    34    20    33    1
    35    21    34    1
    36    22    24    1
    37    22    25    1
    38    23    35    1
    39    23    36    1
    40    23    37    1
    41    24    40    1
    42    24    41    1
    43    24    42    1
    44    25    43    1
    45    25    44    1
    46    25    45    1
