@<TRIPOS>MOLECULE
IMPHY014159
 41 42 0 0 0
SMALL
GASTEIGER

@<TRIPOS>ATOM
      1 O           6.3301   -2.0000    0.0000 O.3     1  UNL1       -0.3396
      2 O           4.5981   -4.0000    0.0000 O.3     1  UNL1       -0.3864
      3 O           6.3301   -5.0000    0.0000 O.3     1  UNL1       -0.3864
      4 O           8.0622   -4.0000    0.0000 O.3     1  UNL1       -0.3841
      5 O           8.0622   -2.0000    0.0000 O.3     1  UNL1       -0.3649
      6 O           4.5981   -1.0000    0.0000 O.3     1  UNL1       -0.4589
      7 O           2.8660   -1.0000    0.0000 O.2     1  UNL1       -0.2456
      8 O           2.8660    5.0000    0.0000 O.3     1  UNL1       -0.5068
      9 C           5.4641   -3.5000    0.0000 C.3     1  UNL1        0.1129
     10 C           6.3301   -4.0000    0.0000 C.3     1  UNL1        0.1141
     11 C           5.4641   -2.5000    0.0000 C.3     1  UNL1        0.1240
     12 C           7.1962   -3.5000    0.0000 C.3     1  UNL1        0.1339
     13 C           7.1962   -2.5000    0.0000 C.3     1  UNL1        0.1854
     14 C           4.5981   -2.0000    0.0000 C.3     1  UNL1        0.1215
     15 C           3.7320   -0.5000    0.0000 C.2     1  UNL1        0.3320
     16 C           3.7320    0.5000    0.0000 C.2     1  UNL1        0.0231
     17 C           2.8660    1.0000    0.0000 C.2     1  UNL1       -0.0478
     18 C           2.8660    2.0000    0.0000 C.ar    1  UNL1       -0.0246
     19 C           2.0000    2.5000    0.0000 C.ar    1  UNL1       -0.0511
     20 C           3.7320    2.5000    0.0000 C.ar    1  UNL1       -0.0511
     21 C           2.0000    3.5000    0.0000 C.ar    1  UNL1       -0.0196
     22 C           3.7320    3.5000    0.0000 C.ar    1  UNL1       -0.0196
     23 C           2.8660    4.0000    0.0000 C.ar    1  UNL1        0.1169
     24 H           4.9272   -3.1900    0.0000 H       1  UNL1        0.0647
     25 H           5.7932   -4.3100    0.0000 H       1  UNL1        0.0648
     26 H           5.4641   -1.8800    0.0000 H       1  UNL1        0.0658
     27 H           7.1962   -4.1200    0.0000 H       1  UNL1        0.0671
     28 H           7.7331   -2.8100    0.0000 H       1  UNL1        0.0935
     29 H           3.9875   -1.8923    0.0000 H       1  UNL1        0.0725
     30 H           4.3860   -2.5826    0.0000 H       1  UNL1        0.0725
     31 H           4.0611   -3.6900    0.0000 H       1  UNL1        0.2100
     32 H           6.8671   -5.3100    0.0000 H       1  UNL1        0.2100
     33 H           8.5991   -3.6900    0.0000 H       1  UNL1        0.2101
     34 H           8.0622   -1.3800    0.0000 H       1  UNL1        0.2126
     35 H           4.2690    0.8100    0.0000 H       1  UNL1        0.0689
     36 H           2.3291    0.6900    0.0000 H       1  UNL1        0.0626
     37 H           1.4631    2.1900    0.0000 H       1  UNL1        0.0625
     38 H           4.2690    2.1900    0.0000 H       1  UNL1        0.0625
     39 H           1.4631    3.8100    0.0000 H       1  UNL1        0.0654
     40 H           4.2690    3.8100    0.0000 H       1  UNL1        0.0654
     41 H           2.3291    5.3100    0.0000 H       1  UNL1        0.2921
@<TRIPOS>BOND
     1     1    11    1
     2     1    13    1
     3     9     2    1
     4     2    31    1
     5    10     3    1
     6     3    32    1
     7    12     4    1
     8     4    33    1
     9     5    13    1
    10     5    34    1
    11     6    14    1
    12     6    15    1
    13     7    15    2
    14     8    23    1
    15     8    41    1
    16     9    10    1
    17     9    11    1
    18     9    24    1
    19    10    12    1
    20    10    25    1
    21    11    14    1
    22    11    26    1
    23    12    13    1
    24    12    27    1
    25    13    28    1
    26    14    29    1
    27    14    30    1
    28    15    16    1
    29    16    17    2
    30    16    35    1
    31    17    18    1
    32    17    36    1
    33    18    19   ar
    34    18    20   ar
    35    19    21   ar
    36    19    37    1
    37    20    22   ar
    38    20    38    1
    39    21    23   ar
    40    21    39    1
    41    22    23   ar
    42    22    40    1
