@<TRIPOS>MOLECULE
IMPHY013942
 56 57 0 0 0
SMALL
GASTEIGER

@<TRIPOS>ATOM
      1 O           7.6159    3.0937    0.0000 O.3     1  UNL1       -0.3945
      2 O           3.5000   -3.3242    0.0000 O.3     1  UNL1       -0.3848
      3 C           5.2320    0.6758    0.0000 C.3     1  UNL1       -0.0222
      4 C           5.2320    1.6758    0.0000 C.3     1  UNL1       -0.0273
      5 C           6.1260    2.2104    0.0000 C.3     1  UNL1       -0.0056
      6 C           4.3660    0.1758    0.0000 C.3     1  UNL1       -0.0144
      7 C           6.1260    0.1411    0.0000 C.3     1  UNL1       -0.0468
      8 C           4.3660    2.1758    0.0000 C.3     1  UNL1       -0.0454
      9 C           7.0321    1.6966    0.0000 C.3     1  UNL1       -0.0452
     10 C           7.0321    0.6550    0.0000 C.3     1  UNL1       -0.0520
     11 C           5.2320   -0.3242    0.0000 C.3     1  UNL1       -0.0587
     12 C           3.5000    1.6758    0.0000 C.3     1  UNL1       -0.0314
     13 C           3.5000    0.6758    0.0000 C.2     1  UNL1       -0.0730
     14 C           4.3660   -0.8242    0.0000 C.3     1  UNL1       -0.0431
     15 C           6.6160    3.0822    0.0000 C.3     1  UNL1        0.0498
     16 C           5.6160    3.0706    0.0000 C.3     1  UNL1       -0.0572
     17 C           3.5000   -1.3242    0.0000 C.3     1  UNL1       -0.0201
     18 C           2.6340    0.1758    0.0000 C.2     1  UNL1       -0.0992
     19 C           3.5000   -2.3242    0.0000 C.3     1  UNL1        0.0811
     20 C           4.5000   -2.3242    0.0000 C.3     1  UNL1       -0.0325
     21 C           2.5000   -2.3242    0.0000 C.2     1  UNL1       -0.0602
     22 C           2.0000   -3.1902    0.0000 C.2     1  UNL1       -0.1000
     23 H           5.2273    2.2958    0.0000 H       1  UNL1        0.0312
     24 H           3.8291   -0.1342    0.0000 H       1  UNL1        0.0351
     25 H           5.7214   -0.3287    0.0000 H       1  UNL1        0.0271
     26 H           6.5196   -0.3379    0.0000 H       1  UNL1        0.0271
     27 H           4.7646    2.6507    0.0000 H       1  UNL1        0.0271
     28 H           3.9675    2.6507    0.0000 H       1  UNL1        0.0271
     29 H           7.6429    1.5905    0.0000 H       1  UNL1        0.0271
     30 H           7.2411    2.2803    0.0000 H       1  UNL1        0.0271
     31 H           7.2411    0.0713    0.0000 H       1  UNL1        0.0266
     32 H           7.6429    0.7610    0.0000 H       1  UNL1        0.0266
     33 H           4.6120   -0.3242    0.0000 H       1  UNL1        0.0235
     34 H           5.2320   -0.9442    0.0000 H       1  UNL1        0.0235
     35 H           5.8520   -0.3242    0.0000 H       1  UNL1        0.0235
     36 H           3.2880    2.2584    0.0000 H       1  UNL1        0.0310
     37 H           2.8894    1.5681    0.0000 H       1  UNL1        0.0310
     38 H           4.5781   -1.4068    0.0000 H       1  UNL1        0.0272
     39 H           4.9766   -0.7166    0.0000 H       1  UNL1        0.0272
     40 H           6.7165    3.6940    0.0000 H       1  UNL1        0.0562
     41 H           6.0309    3.2875    0.0000 H       1  UNL1        0.0562
     42 H           6.1493    3.3868    0.0000 H       1  UNL1        0.0236
     43 H           5.2998    3.6039    0.0000 H       1  UNL1        0.0236
     44 H           5.0827    2.7544    0.0000 H       1  UNL1        0.0236
     45 H           3.2880   -0.7416    0.0000 H       1  UNL1        0.0296
     46 H           2.8894   -1.4319    0.0000 H       1  UNL1        0.0296
     47 H           2.0970    0.4858    0.0000 H       1  UNL1        0.0534
     48 H           2.6340   -0.4442    0.0000 H       1  UNL1        0.0534
     49 H           7.9196    3.6342    0.0000 H       1  UNL1        0.2094
     50 H           4.5000   -2.9442    0.0000 H       1  UNL1        0.0260
     51 H           5.1200   -2.3242    0.0000 H       1  UNL1        0.0260
     52 H           4.5000   -1.7042    0.0000 H       1  UNL1        0.0260
     53 H           2.1900   -1.7873    0.0000 H       1  UNL1        0.0594
     54 H           2.9631   -3.6342    0.0000 H       1  UNL1        0.2106
     55 H           1.3800   -3.1902    0.0000 H       1  UNL1        0.0533
     56 H           2.3100   -3.7272    0.0000 H       1  UNL1        0.0533
@<TRIPOS>BOND
     1     1    15    1
     2     1    49    1
     3     2    19    1
     4     2    54    1
     5     3     4    1
     6     3     6    1
     7     3     7    1
     8     3    11    1
     9     4     5    1
    10     4     8    1
    11     4    23    1
    12     5     9    1
    13     5    15    1
    14     5    16    1
    15     6    13    1
    16     6    14    1
    17     6    24    1
    18     7    10    1
    19     7    25    1
    20     7    26    1
    21     8    12    1
    22     8    27    1
    23     8    28    1
    24     9    10    1
    25     9    29    1
    26     9    30    1
    27    10    31    1
    28    10    32    1
    29    11    33    1
    30    11    34    1
    31    11    35    1
    32    12    13    1
    33    12    36    1
    34    12    37    1
    35    13    18    2
    36    14    17    1
    37    14    38    1
    38    14    39    1
    39    15    40    1
    40    15    41    1
    41    16    42    1
    42    16    43    1
    43    16    44    1
    44    17    19    1
    45    17    45    1
    46    17    46    1
    47    18    47    1
    48    18    48    1
    49    19    20    1
    50    19    21    1
    51    20    50    1
    52    20    51    1
    53    20    52    1
    54    21    22    2
    55    21    53    1
    56    22    55    1
    57    22    56    1
