@<TRIPOS>MOLECULE
IMPHY000500
 22 23 0 0 0
SMALL
GASTEIGER

@<TRIPOS>ATOM
      1 O           5.7988    0.1218    0.0000 O.3     1  UNL1       -0.4502
      2 O           5.5259   -1.6334    0.0000 O.2     1  UNL1       -0.2447
      3 O           3.4030   -1.8782    0.0000 O.2     1  UNL1       -0.2670
      4 N           2.5369   -0.3782    0.0000 N.ar    1  UNL1       -0.3284
      5 C           5.2152    0.9266    0.0000 C.3     1  UNL1        0.1341
      6 C           4.2690    0.6218    0.0000 C.ar    1  UNL1        0.0158
      7 C           4.2690   -0.3782    0.0000 C.ar    1  UNL1        0.1300
      8 C           6.0252    1.5130    0.0000 C.3     1  UNL1       -0.0208
      9 C           4.9078    1.8782    0.0000 C.3     1  UNL1       -0.0208
     10 C           5.2152   -0.6829    0.0000 C.2     1  UNL1        0.3457
     11 C           3.4030    1.1218    0.0000 C.ar    1  UNL1       -0.0378
     12 C           3.4030   -0.8782    0.0000 C.ar    1  UNL1        0.2632
     13 C           2.5369    0.6218    0.0000 C.ar    1  UNL1        0.0054
     14 H           5.4978    2.0687    0.0000 H       1  UNL1        0.0271
     15 H           4.7173    2.4682    0.0000 H       1  UNL1        0.0271
     16 H           6.3888    1.0107    0.0000 H       1  UNL1        0.0271
     17 H           6.5275    1.8765    0.0000 H       1  UNL1        0.0271
     18 H           5.6617    2.0152    0.0000 H       1  UNL1        0.0271
     19 H           4.3178    1.6876    0.0000 H       1  UNL1        0.0271
     20 H           3.4030    1.7418    0.0000 H       1  UNL1        0.0636
     21 H           2.0000    0.9318    0.0000 H       1  UNL1        0.0808
     22 H           2.0000   -0.6882    0.0000 H       1  UNL1        0.1683
@<TRIPOS>BOND
     1     1     5    1
     2     1    10    1
     3     2    10    2
     4     3    12    2
     5     4    12   ar
     6     4    13   ar
     7     4    22    1
     8     5     6    1
     9     5     8    1
    10     5     9    1
    11     6     7   ar
    12     6    11   ar
    13     7    10    1
    14     7    12   ar
    15     8    16    1
    16     8    17    1
    17     8    18    1
    18     9    14    1
    19     9    15    1
    20     9    19    1
    21    11    13   ar
    22    11    20    1
    23    13    21    1
