@<TRIPOS>MOLECULE
IMPHY006188
 34 34 0 0 0
SMALL
GASTEIGER

@<TRIPOS>ATOM
      1 O           6.0010    1.3450    0.0000 O.3     1  UNL1       -0.4435
      2 O           7.7331    2.3450    0.0000 O.3     1  UNL1       -0.3772
      3 O           5.1350    3.8450    0.0000 O.3     1  UNL1       -0.4780
      4 O           7.7331    4.3450    0.0000 O.3     1  UNL1       -0.4787
      5 O           4.2690    2.3450    0.0000 O.2     1  UNL1       -0.2467
      6 O           6.0010    4.3450    0.0000 O.2     1  UNL1       -0.2479
      7 O           2.5369   -3.6550    0.0000 O.3     1  UNL1       -0.5033
      8 O           4.2690    1.3450    0.0000 O.2     1  UNL1       -0.2456
      9 O           4.2690   -4.6550    0.0000 O.3     1  UNL1       -0.5033
     10 C           6.0010    2.3450    0.0000 C.3     1  UNL1        0.2348
     11 C           6.8671    2.8450    0.0000 C.3     1  UNL1        0.1992
     12 C           5.1350    2.8450    0.0000 C.2     1  UNL1        0.3492
     13 C           6.8671    3.8450    0.0000 C.2     1  UNL1        0.3380
     14 C           4.2690   -1.6550    0.0000 C.ar    1  UNL1       -0.0211
     15 C           5.1350    0.8450    0.0000 C.2     1  UNL1        0.3328
     16 C           4.2690   -0.6550    0.0000 C.2     1  UNL1       -0.0477
     17 C           3.4030   -2.1550    0.0000 C.ar    1  UNL1       -0.0094
     18 C           5.1350   -0.1550    0.0000 C.2     1  UNL1        0.0231
     19 C           5.1350   -2.1550    0.0000 C.ar    1  UNL1       -0.0509
     20 C           3.4030   -3.1550    0.0000 C.ar    1  UNL1        0.1588
     21 C           4.2690   -3.6550    0.0000 C.ar    1  UNL1        0.1582
     22 C           5.1350   -3.1550    0.0000 C.ar    1  UNL1       -0.0160
     23 H           6.5380    2.0350    0.0000 H       1  UNL1        0.0886
     24 H           7.4040    3.1550    0.0000 H       1  UNL1        0.0754
     25 H           3.7320   -0.3450    0.0000 H       1  UNL1        0.0626
     26 H           2.8660   -1.8450    0.0000 H       1  UNL1        0.0661
     27 H           5.6720   -0.4650    0.0000 H       1  UNL1        0.0689
     28 H           8.2700    2.6550    0.0000 H       1  UNL1        0.2107
     29 H           5.6720   -1.8450    0.0000 H       1  UNL1        0.0625
     30 H           5.6720   -3.4650    0.0000 H       1  UNL1        0.0655
     31 H           4.5981    4.1550    0.0000 H       1  UNL1        0.2952
     32 H           7.7331    4.9650    0.0000 H       1  UNL1        0.2951
     33 H           2.0000   -3.3450    0.0000 H       1  UNL1        0.2923
     34 H           4.8059   -4.9650    0.0000 H       1  UNL1        0.2923
@<TRIPOS>BOND
     1    10     1    1
     2     1    15    1
     3    11     2    1
     4     2    28    1
     5     3    12    1
     6     3    31    1
     7     4    13    1
     8     4    32    1
     9     5    12    2
    10     6    13    2
    11     7    20    1
    12     7    33    1
    13     8    15    2
    14     9    21    1
    15     9    34    1
    16    10    11    1
    17    10    12    1
    18    10    23    1
    19    11    13    1
    20    11    24    1
    21    14    16    1
    22    14    17   ar
    23    14    19   ar
    24    15    18    1
    25    16    18    2
    26    16    25    1
    27    17    20   ar
    28    17    26    1
    29    18    27    1
    30    19    22   ar
    31    19    29    1
    32    20    21   ar
    33    21    22   ar
    34    22    30    1
