@<TRIPOS>MOLECULE
IMPHY000433
 75 79 0 0 0
SMALL
GASTEIGER

@<TRIPOS>ATOM
      1 O           9.2584    0.9165    0.0000 O.3     1  UNL1       -0.3455
      2 O           8.0898   -1.9492    0.0000 O.3     1  UNL1       -0.4581
      3 O          10.3379    1.9861    0.0000 O.3     1  UNL1       -0.3623
      4 O           8.9718    2.6201    0.0000 O.3     1  UNL1       -0.3862
      5 O          11.6222    1.2050    0.0000 O.3     1  UNL1       -0.3887
      6 O           6.3356    0.1232    0.0000 O.3     1  UNL1       -0.4494
      7 O          13.4570    0.2208    0.0000 O.3     1  UNL1       -0.3892
      8 O           6.3198   -1.9250    0.0000 O.2     1  UNL1       -0.2466
      9 O           5.4523   -1.3667    0.0000 O.2     1  UNL1       -0.2505
     10 C           8.9718   -0.3799    0.0000 C.3     1  UNL1        0.0465
     11 C           9.8379    0.1201    0.0000 C.3     1  UNL1        0.0351
     12 C          10.7476   -0.3679    0.0000 C.3     1  UNL1        0.0080
     13 C           8.1058    0.1201    0.0000 C.3     1  UNL1        0.0234
     14 C           9.8379    1.1201    0.0000 C.3     1  UNL1        0.1981
     15 C          10.7719   -1.4000    0.0000 C.3     1  UNL1       -0.0267
     16 C           8.9879   -1.4214    0.0000 C.3     1  UNL1        0.1120
     17 C           8.8584    0.2237    0.0000 C.3     1  UNL1        0.0609
     18 C           9.8862   -1.9303    0.0000 C.3     1  UNL1       -0.0114
     19 C           8.1058    1.1201    0.0000 C.3     1  UNL1       -0.0053
     20 C           8.9718    1.6201    0.0000 C.3     1  UNL1        0.1120
     21 C          11.6573    0.2056    0.0000 C.3     1  UNL1        0.0871
     22 C          11.7076   -1.9302    0.0000 C.3     1  UNL1       -0.0379
     23 C           7.1958   -0.3868    0.0000 C.3     1  UNL1        0.2027
     24 C          10.7241    0.6318    0.0000 C.3     1  UNL1       -0.0564
     25 C          12.6050   -0.3027    0.0000 C.3     1  UNL1        0.0818
     26 C          12.6303   -1.3778    0.0000 C.3     1  UNL1       -0.0215
     27 C           7.2398    1.6201    0.0000 C.3     1  UNL1       -0.0595
     28 C           7.1878   -1.4284    0.0000 C.2     1  UNL1        0.3490
     29 C          11.7196   -2.9301    0.0000 C.3     1  UNL1       -0.0621
     30 C           5.4639   -0.3667    0.0000 C.2     1  UNL1        0.3107
     31 C           4.6037    0.1432    0.0000 C.3     1  UNL1        0.0537
     32 C           3.7319   -0.3467    0.0000 C.3     1  UNL1       -0.0406
     33 C           4.6152    1.1432    0.0000 C.3     1  UNL1       -0.0523
     34 C           2.8718    0.1633    0.0000 C.3     1  UNL1       -0.0552
     35 C           2.0000   -0.3267    0.0000 C.3     1  UNL1       -0.0653
     36 H          10.2629   -0.6160    0.0000 H       1  UNL1        0.0367
     37 H           7.3697    0.5451    0.0000 H       1  UNL1        0.0353
     38 H          10.7821   -2.2500    0.0000 H       1  UNL1        0.0311
     39 H           8.9946   -2.2714    0.0000 H       1  UNL1        0.0740
     40 H           8.4313    0.6731    0.0000 H       1  UNL1        0.0568
     41 H           8.3065   -0.0587    0.0000 H       1  UNL1        0.0568
     42 H           9.4927   -2.4095    0.0000 H       1  UNL1        0.0304
     43 H          10.2909   -2.4000    0.0000 H       1  UNL1        0.0304
     44 H           8.1058    1.7401    0.0000 H       1  UNL1        0.0329
     45 H           9.5088    1.9301    0.0000 H       1  UNL1        0.0650
     46 H          12.1837    0.5333    0.0000 H       1  UNL1        0.0625
     47 H          12.2488   -2.2326    0.0000 H       1  UNL1        0.0302
     48 H           7.2042    0.2332    0.0000 H       1  UNL1        0.0856
     49 H          11.3439    0.6464    0.0000 H       1  UNL1        0.0236
     50 H          10.7095    1.2516    0.0000 H       1  UNL1        0.0236
     51 H          10.1043    0.6172    0.0000 H       1  UNL1        0.0236
     52 H          12.5868    0.3170    0.0000 H       1  UNL1        0.0619
     53 H          12.8530   -1.9564    0.0000 H       1  UNL1        0.0294
     54 H          13.2385   -1.2573    0.0000 H       1  UNL1        0.0294
     55 H           7.5498    2.1570    0.0000 H       1  UNL1        0.0233
     56 H           6.7028    1.9301    0.0000 H       1  UNL1        0.0233
     57 H           6.9298    1.0831    0.0000 H       1  UNL1        0.0233
     58 H          10.0279    2.5230    0.0000 H       1  UNL1        0.2128
     59 H          11.0996   -2.9375    0.0000 H       1  UNL1        0.0233
     60 H          11.7270   -3.5500    0.0000 H       1  UNL1        0.0233
     61 H          12.3395   -2.9226    0.0000 H       1  UNL1        0.0233
     62 H           8.4349    2.9301    0.0000 H       1  UNL1        0.2100
     63 H          12.1479    1.5337    0.0000 H       1  UNL1        0.2099
     64 H          14.0022   -0.0743    0.0000 H       1  UNL1        0.2099
     65 H           4.0704    0.4594    0.0000 H       1  UNL1        0.0411
     66 H           3.3279   -0.8170    0.0000 H       1  UNL1        0.0273
     67 H           4.1249   -0.8262    0.0000 H       1  UNL1        0.0273
     68 H           5.2352    1.1360    0.0000 H       1  UNL1        0.0238
     69 H           4.6224    1.7631    0.0000 H       1  UNL1        0.0238
     70 H           3.9953    1.1504    0.0000 H       1  UNL1        0.0238
     71 H           3.2757    0.6336    0.0000 H       1  UNL1        0.0263
     72 H           2.4787    0.6428    0.0000 H       1  UNL1        0.0263
     73 H           1.6962    0.2138    0.0000 H       1  UNL1        0.0230
     74 H           1.4595   -0.6305    0.0000 H       1  UNL1        0.0230
     75 H           2.3038   -0.8672    0.0000 H       1  UNL1        0.0230
@<TRIPOS>BOND
     1     1    14    1
     2     1    17    1
     3     2    16    1
     4     2    28    1
     5    14     3    1
     6     3    58    1
     7    20     4    1
     8     4    62    1
     9    21     5    1
    10     5    63    1
    11    23     6    1
    12     6    30    1
    13    25     7    1
    14     7    64    1
    15     8    28    2
    16     9    30    2
    17    10    11    1
    18    10    13    1
    19    10    16    1
    20    10    17    1
    21    11    12    1
    22    11    14    1
    23    11    36    1
    24    12    15    1
    25    12    21    1
    26    12    24    1
    27    13    19    1
    28    13    23    1
    29    13    37    1
    30    14    20    1
    31    15    18    1
    32    15    22    1
    33    15    38    1
    34    16    18    1
    35    16    39    1
    36    17    40    1
    37    17    41    1
    38    18    42    1
    39    18    43    1
    40    19    20    1
    41    19    27    1
    42    19    44    1
    43    20    45    1
    44    21    25    1
    45    21    46    1
    46    22    26    1
    47    22    29    1
    48    22    47    1
    49    23    28    1
    50    23    48    1
    51    24    49    1
    52    24    50    1
    53    24    51    1
    54    25    26    1
    55    25    52    1
    56    26    53    1
    57    26    54    1
    58    27    55    1
    59    27    56    1
    60    27    57    1
    61    29    59    1
    62    29    60    1
    63    29    61    1
    64    30    31    1
    65    31    32    1
    66    31    33    1
    67    31    65    1
    68    32    34    1
    69    32    66    1
    70    32    67    1
    71    33    68    1
    72    33    69    1
    73    33    70    1
    74    34    35    1
    75    34    71    1
    76    34    72    1
    77    35    73    1
    78    35    74    1
    79    35    75    1
