@<TRIPOS>MOLECULE
IMPHY015761
 39 39 0 0 0
SMALL
GASTEIGER

@<TRIPOS>ATOM
      1 C           4.5981   -0.5600    0.0000 C.3     1  UNL1       -0.0021
      2 C           5.4641   -0.0600    0.0000 C.3     1  UNL1       -0.0428
      3 C           5.4641    0.9400    0.0000 C.3     1  UNL1       -0.0486
      4 C           4.5981    1.4400    0.0000 C.3     1  UNL1       -0.0320
      5 C           3.7320   -0.0600    0.0000 C.2     1  UNL1       -0.0779
      6 C           2.8660   -0.5600    0.0000 C.2     1  UNL1       -0.0757
      7 C           2.0000   -0.0600    0.0000 C.3     1  UNL1       -0.0285
      8 C           3.7320    0.9400    0.0000 C.2     1  UNL1       -0.0765
      9 C           4.5981   -1.5600    0.0000 C.2     1  UNL1       -0.0729
     10 C           2.0000    0.9400    0.0000 C.3     1  UNL1       -0.0308
     11 C           2.8660    1.4400    0.0000 C.2     1  UNL1       -0.0847
     12 C           2.8660   -1.5600    0.0000 C.3     1  UNL1       -0.0438
     13 C           3.4630   -0.5865    0.0000 C.3     1  UNL1       -0.0438
     14 C           5.4641   -2.0600    0.0000 C.3     1  UNL1       -0.0435
     15 C           3.7320   -2.0600    0.0000 C.2     1  UNL1       -0.0992
     16 H           5.1350   -0.8700    0.0000 H       1  UNL1        0.0388
     17 H           5.6762   -0.6426    0.0000 H       1  UNL1        0.0274
     18 H           6.0747    0.0477    0.0000 H       1  UNL1        0.0274
     19 H           6.0747    0.8323    0.0000 H       1  UNL1        0.0269
     20 H           5.6762    1.5226    0.0000 H       1  UNL1        0.0269
     21 H           4.9966    1.9150    0.0000 H       1  UNL1        0.0310
     22 H           4.1996    1.9150    0.0000 H       1  UNL1        0.0310
     23 H           4.1306    0.4149    0.0000 H       1  UNL1        0.0577
     24 H           1.3894    0.0477    0.0000 H       1  UNL1        0.0313
     25 H           1.7880   -0.6426    0.0000 H       1  UNL1        0.0313
     26 H           1.7880    1.5226    0.0000 H       1  UNL1        0.0310
     27 H           1.3894    0.8323    0.0000 H       1  UNL1        0.0310
     28 H           2.8660    2.0600    0.0000 H       1  UNL1        0.0572
     29 H           2.2460   -1.5600    0.0000 H       1  UNL1        0.0274
     30 H           2.8660   -2.1800    0.0000 H       1  UNL1        0.0274
     31 H           3.4860   -1.5600    0.0000 H       1  UNL1        0.0274
     32 H           2.8524   -0.4789    0.0000 H       1  UNL1        0.0274
     33 H           3.3554   -1.1971    0.0000 H       1  UNL1        0.0274
     34 H           4.0736   -0.6941    0.0000 H       1  UNL1        0.0274
     35 H           5.1541   -2.5969    0.0000 H       1  UNL1        0.0274
     36 H           6.0010   -2.3700    0.0000 H       1  UNL1        0.0274
     37 H           5.7741   -1.5231    0.0000 H       1  UNL1        0.0274
     38 H           3.1951   -1.7500    0.0000 H       1  UNL1        0.0534
     39 H           3.7320   -2.6800    0.0000 H       1  UNL1        0.0534
@<TRIPOS>BOND
     1     1     2    1
     2     1     5    1
     3     1     9    1
     4     1    16    1
     5     2     3    1
     6     2    17    1
     7     2    18    1
     8     3     4    1
     9     3    19    1
    10     3    20    1
    11     4     8    1
    12     4    21    1
    13     4    22    1
    14     5     6    2
    15     5    23    1
    16     6     7    1
    17     6    12    1
    18     7    10    1
    19     7    24    1
    20     7    25    1
    21     8    11    2
    22     8    13    1
    23     9    14    1
    24     9    15    2
    25    10    11    1
    26    10    26    1
    27    10    27    1
    28    11    28    1
    29    12    29    1
    30    12    30    1
    31    12    31    1
    32    13    32    1
    33    13    33    1
    34    13    34    1
    35    14    35    1
    36    14    36    1
    37    14    37    1
    38    15    38    1
    39    15    39    1
