@<TRIPOS>MOLECULE
IMPHY000987
 37 39 0 0 0
SMALL
GASTEIGER

@<TRIPOS>ATOM
      1 O           8.7460   -1.4424    0.0000 O.3     1  UNL1       -0.4852
      2 O          11.3297   -0.6377    0.0000 O.3     1  UNL1       -0.3855
      3 O           5.1738   -1.6723    0.0000 O.2     1  UNL1       -0.4569
      4 O           6.9338    1.3623    0.0000 O.3     1  UNL1       -0.5055
      5 O           5.1854    1.3969    0.0000 O.2     1  UNL1       -0.2869
      6 O           2.5357   -1.1652    0.0000 O.3     1  UNL1       -0.3873
      7 C           9.3297   -0.6377    0.0000 C.3     1  UNL1        0.1323
      8 C          10.3297   -0.6377    0.0000 C.3     1  UNL1        0.0974
      9 C           8.7460    0.1671    0.0000 C.3     1  UNL1        0.0192
     10 C           7.7998   -0.1377    0.0000 C.ar    1  UNL1        0.0401
     11 C           7.7998   -1.1377    0.0000 C.ar    1  UNL1        0.1313
     12 C          10.3297   -1.6377    0.0000 C.3     1  UNL1       -0.0328
     13 C          10.3297    0.3623    0.0000 C.3     1  UNL1       -0.0328
     14 C           6.9338    0.3623    0.0000 C.ar    1  UNL1        0.1380
     15 C           6.9338   -1.6377    0.0000 C.ar    1  UNL1        0.0236
     16 C           6.0678   -0.1377    0.0000 C.ar    1  UNL1        0.1057
     17 C           6.0678   -1.1377    0.0000 C.ar    1  UNL1        0.1459
     18 C           5.1738    0.3970    0.0000 C.ar    1  UNL1        0.1964
     19 C           4.2678   -1.1585    0.0000 C.ar    1  UNL1        0.1345
     20 C           4.2678   -0.1169    0.0000 C.ar    1  UNL1        0.0263
     21 C           3.4037   -1.6618    0.0000 C.3     1  UNL1        0.1020
     22 H           9.7159   -1.3949    0.0000 H       1  UNL1        0.0765
     23 H           9.2834    0.4763    0.0000 H       1  UNL1        0.0352
     24 H           8.4950    0.7340    0.0000 H       1  UNL1        0.0352
     25 H           9.7097   -1.6377    0.0000 H       1  UNL1        0.0258
     26 H          10.3297   -2.2577    0.0000 H       1  UNL1        0.0258
     27 H          10.9497   -1.6377    0.0000 H       1  UNL1        0.0258
     28 H          10.9497    0.3623    0.0000 H       1  UNL1        0.0258
     29 H          10.3297    0.9823    0.0000 H       1  UNL1        0.0258
     30 H           9.7097    0.3623    0.0000 H       1  UNL1        0.0258
     31 H           6.9338   -2.2577    0.0000 H       1  UNL1        0.0691
     32 H          11.6397   -1.1746    0.0000 H       1  UNL1        0.2103
     33 H           7.4707    1.6723    0.0000 H       1  UNL1        0.2922
     34 H           3.7320    0.1952    0.0000 H       1  UNL1        0.0690
     35 H           3.0070   -2.1383    0.0000 H       1  UNL1        0.0638
     36 H           3.8040   -2.1352    0.0000 H       1  UNL1        0.0638
     37 H           2.0000   -1.4772    0.0000 H       1  UNL1        0.2100
@<TRIPOS>BOND
     1     1     7    1
     2     1    11    1
     3     2     8    1
     4     2    32    1
     5     3    17   ar
     6     3    19   ar
     7     4    14    1
     8     4    33    1
     9     5    18    2
    10     6    21    1
    11     6    37    1
    12     7     8    1
    13     7     9    1
    14     7    22    1
    15     8    12    1
    16     8    13    1
    17     9    10    1
    18     9    23    1
    19     9    24    1
    20    10    11   ar
    21    10    14   ar
    22    11    15   ar
    23    12    25    1
    24    12    26    1
    25    12    27    1
    26    13    28    1
    27    13    29    1
    28    13    30    1
    29    14    16   ar
    30    15    17   ar
    31    15    31    1
    32    16    17   ar
    33    16    18   ar
    34    18    20   ar
    35    19    20   ar
    36    19    21    1
    37    20    34    1
    38    21    35    1
    39    21    36    1
