@<TRIPOS>MOLECULE
IMPHY009590
 49 50 0 0 0
SMALL
GASTEIGER

@<TRIPOS>ATOM
      1 O           6.8671   -0.5950    0.0000 O.3     1  UNL1       -0.3451
      2 O           5.1350   -0.5950    0.0000 O.3     1  UNL1       -0.3405
      3 O           6.8671   -2.5950    0.0000 O.3     1  UNL1       -0.3841
      4 O           5.1350   -3.5950    0.0000 O.3     1  UNL1       -0.3864
      5 O           3.4030   -2.5950    0.0000 O.3     1  UNL1       -0.3865
      6 O           2.5369   -1.0950    0.0000 O.3     1  UNL1       -0.3924
      7 O           6.0010    3.9050    0.0000 O.2     1  UNL1       -0.2960
      8 C           7.7331    1.9050    0.0000 C.3     1  UNL1       -0.0045
      9 C           6.8671    0.4050    0.0000 C.3     1  UNL1        0.0662
     10 C           7.7331    0.9050    0.0000 C.3     1  UNL1       -0.0169
     11 C           6.0010    0.9050    0.0000 C.3     1  UNL1       -0.0048
     12 C           6.0010   -1.0950    0.0000 C.3     1  UNL1        0.1882
     13 C           6.0010   -2.0950    0.0000 C.3     1  UNL1        0.1341
     14 C           6.8671    2.4050    0.0000 C.2     1  UNL1       -0.0034
     15 C           5.1350   -2.5950    0.0000 C.3     1  UNL1        0.1141
     16 C           4.2690   -2.0950    0.0000 C.3     1  UNL1        0.1119
     17 C           6.0010    1.9050    0.0000 C.2     1  UNL1       -0.0635
     18 C           4.2690   -1.0950    0.0000 C.3     1  UNL1        0.1130
     19 C           8.2331    2.7710    0.0000 C.3     1  UNL1       -0.0556
     20 C           8.7331    1.9050    0.0000 C.3     1  UNL1       -0.0556
     21 C           3.4030   -0.5950    0.0000 C.3     1  UNL1        0.0730
     22 C           5.1350    2.4050    0.0000 C.3     1  UNL1       -0.0430
     23 C           6.8671    3.4050    0.0000 C.2     1  UNL1        0.1467
     24 H           7.4040    0.0950    0.0000 H       1  UNL1        0.0600
     25 H           7.9451    0.3224    0.0000 H       1  UNL1        0.0299
     26 H           8.3437    1.0127    0.0000 H       1  UNL1        0.0299
     27 H           5.3905    1.0127    0.0000 H       1  UNL1        0.0335
     28 H           5.7890    0.3224    0.0000 H       1  UNL1        0.0335
     29 H           6.5380   -1.4050    0.0000 H       1  UNL1        0.0937
     30 H           6.0010   -2.7150    0.0000 H       1  UNL1        0.0671
     31 H           4.5981   -2.9050    0.0000 H       1  UNL1        0.0648
     32 H           3.7320   -1.7850    0.0000 H       1  UNL1        0.0647
     33 H           4.2690   -0.4750    0.0000 H       1  UNL1        0.0647
     34 H           8.7700    2.4610    0.0000 H       1  UNL1        0.0238
     35 H           8.5431    3.3080    0.0000 H       1  UNL1        0.0238
     36 H           7.6962    3.0810    0.0000 H       1  UNL1        0.0238
     37 H           8.7331    1.2850    0.0000 H       1  UNL1        0.0238
     38 H           9.3531    1.9050    0.0000 H       1  UNL1        0.0238
     39 H           8.7331    2.5250    0.0000 H       1  UNL1        0.0238
     40 H           3.8015   -0.1201    0.0000 H       1  UNL1        0.0584
     41 H           3.0044   -0.1201    0.0000 H       1  UNL1        0.0584
     42 H           5.4450    2.9419    0.0000 H       1  UNL1        0.0275
     43 H           4.5981    2.7150    0.0000 H       1  UNL1        0.0275
     44 H           4.8250    1.8681    0.0000 H       1  UNL1        0.0275
     45 H           7.4040    3.7150    0.0000 H       1  UNL1        0.1078
     46 H           6.8671   -3.2150    0.0000 H       1  UNL1        0.2101
     47 H           4.5981   -3.9050    0.0000 H       1  UNL1        0.2100
     48 H           3.4030   -3.2150    0.0000 H       1  UNL1        0.2100
     49 H           2.0000   -0.7850    0.0000 H       1  UNL1        0.2095
@<TRIPOS>BOND
     1     9     1    1
     2    12     1    1
     3     2    12    1
     4     2    18    1
     5    13     3    1
     6     3    46    1
     7    15     4    1
     8     4    47    1
     9    16     5    1
    10     5    48    1
    11     6    21    1
    12     6    49    1
    13     7    23    2
    14     8    10    1
    15     8    14    1
    16     8    19    1
    17     8    20    1
    18     9    10    1
    19     9    11    1
    20     9    24    1
    21    10    25    1
    22    10    26    1
    23    11    17    1
    24    11    27    1
    25    11    28    1
    26    12    13    1
    27    12    29    1
    28    13    15    1
    29    13    30    1
    30    14    17    2
    31    14    23    1
    32    15    16    1
    33    15    31    1
    34    16    18    1
    35    16    32    1
    36    17    22    1
    37    18    21    1
    38    18    33    1
    39    19    34    1
    40    19    35    1
    41    19    36    1
    42    20    37    1
    43    20    38    1
    44    20    39    1
    45    21    40    1
    46    21    41    1
    47    22    42    1
    48    22    43    1
    49    22    44    1
    50    23    45    1
