@<TRIPOS>MOLECULE
IMPHY007696
 54 57 0 0 0
SMALL
GASTEIGER

@<TRIPOS>ATOM
      1 O           6.0010   -1.4350    0.0000 O.3     1  UNL1       -0.3390
      2 O           4.2690   -1.4350    0.0000 O.3     1  UNL1       -0.3405
      3 O           5.1963    1.1486    0.0000 O.3     1  UNL1       -0.4826
      4 O           6.0010   -3.4350    0.0000 O.3     1  UNL1       -0.3841
      5 O           7.7563    0.8380    0.0000 O.3     1  UNL1       -0.3832
      6 O           4.2690   -4.4350    0.0000 O.3     1  UNL1       -0.3864
      7 O           2.5369   -3.4350    0.0000 O.3     1  UNL1       -0.3865
      8 O           8.0425    2.9448    0.0000 O.2     1  UNL1       -0.4217
      9 O           2.5369   -0.4350    0.0000 O.3     1  UNL1       -0.3924
     10 O           9.5703    3.8390    0.0000 O.2     1  UNL1       -0.2452
     11 C           6.0010   -0.4350    0.0000 C.3     1  UNL1        0.1064
     12 C           6.0010    0.5650    0.0000 C.3     1  UNL1        0.1585
     13 C           5.1350   -1.9350    0.0000 C.3     1  UNL1        0.1887
     14 C           5.1350   -2.9350    0.0000 C.3     1  UNL1        0.1341
     15 C           6.8058    1.1486    0.0000 C.3     1  UNL1        0.1264
     16 C           4.2690   -3.4350    0.0000 C.3     1  UNL1        0.1141
     17 C           3.4030   -2.9350    0.0000 C.3     1  UNL1        0.1119
     18 C           3.4030   -1.9350    0.0000 C.3     1  UNL1        0.1130
     19 C           6.5010    2.0949    0.0000 C.ar    1  UNL1        0.0690
     20 C           7.0010   -0.4350    0.0000 C.3     1  UNL1       -0.0324
     21 C           5.0010   -0.4350    0.0000 C.3     1  UNL1       -0.0324
     22 C           5.5010    2.0949    0.0000 C.ar    1  UNL1        0.1305
     23 C           2.5369   -1.4350    0.0000 C.3     1  UNL1        0.0730
     24 C           7.0010    2.9609    0.0000 C.ar    1  UNL1        0.1483
     25 C           5.0010    2.9609    0.0000 C.ar    1  UNL1       -0.0188
     26 C           6.5010    3.8269    0.0000 C.ar    1  UNL1        0.0182
     27 C           5.5010    3.8269    0.0000 C.ar    1  UNL1       -0.0476
     28 C           7.0079    4.7369    0.0000 C.ar    1  UNL1       -0.0443
     29 C           8.5703    3.8429    0.0000 C.ar    1  UNL1        0.3372
     30 C           8.0495    4.7450    0.0000 C.ar    1  UNL1        0.0236
     31 H           5.2438    0.1788    0.0000 H       1  UNL1        0.0792
     32 H           5.1350   -1.3150    0.0000 H       1  UNL1        0.0938
     33 H           5.1350   -3.5550    0.0000 H       1  UNL1        0.0671
     34 H           7.2451    1.5861    0.0000 H       1  UNL1        0.0684
     35 H           3.7320   -3.7450    0.0000 H       1  UNL1        0.0648
     36 H           2.8660   -2.6250    0.0000 H       1  UNL1        0.0647
     37 H           3.4030   -1.3150    0.0000 H       1  UNL1        0.0647
     38 H           7.0010   -1.0550    0.0000 H       1  UNL1        0.0258
     39 H           7.6210   -0.4350    0.0000 H       1  UNL1        0.0258
     40 H           5.0010    0.1850    0.0000 H       1  UNL1        0.0258
     41 H           4.3810   -0.4350    0.0000 H       1  UNL1        0.0258
     42 H           5.0010   -1.0550    0.0000 H       1  UNL1        0.0258
     43 H           7.0010    0.1850    0.0000 H       1  UNL1        0.0258
     44 H           1.9264   -1.3273    0.0000 H       1  UNL1        0.0584
     45 H           2.3249   -2.0176    0.0000 H       1  UNL1        0.0584
     46 H           6.0010   -4.0550    0.0000 H       1  UNL1        0.2101
     47 H           4.3810    2.9609    0.0000 H       1  UNL1        0.0654
     48 H           8.2178    1.2521    0.0000 H       1  UNL1        0.2104
     49 H           3.7320   -4.7450    0.0000 H       1  UNL1        0.2100
     50 H           2.0000   -3.1250    0.0000 H       1  UNL1        0.2100
     51 H           5.1910    4.3639    0.0000 H       1  UNL1        0.0626
     52 H           2.0000   -0.1250    0.0000 H       1  UNL1        0.2095
     53 H           6.6917    5.2702    0.0000 H       1  UNL1        0.0627
     54 H           8.3574    5.2831    0.0000 H       1  UNL1        0.0689
@<TRIPOS>BOND
     1     1    11    1
     2    13     1    1
     3     2    13    1
     4     2    18    1
     5     3    12    1
     6     3    22    1
     7    14     4    1
     8     4    46    1
     9    15     5    1
    10     5    48    1
    11    16     6    1
    12     6    49    1
    13    17     7    1
    14     7    50    1
    15     8    24   ar
    16     8    29   ar
    17     9    23    1
    18     9    52    1
    19    10    29    2
    20    11    12    1
    21    11    20    1
    22    11    21    1
    23    12    15    1
    24    12    31    1
    25    13    14    1
    26    13    32    1
    27    14    16    1
    28    14    33    1
    29    15    19    1
    30    15    34    1
    31    16    17    1
    32    16    35    1
    33    17    18    1
    34    17    36    1
    35    18    23    1
    36    18    37    1
    37    19    22   ar
    38    19    24   ar
    39    20    38    1
    40    20    39    1
    41    20    43    1
    42    21    40    1
    43    21    41    1
    44    21    42    1
    45    22    25   ar
    46    23    44    1
    47    23    45    1
    48    24    26   ar
    49    25    27   ar
    50    25    47    1
    51    26    27   ar
    52    26    28   ar
    53    27    51    1
    54    28    30   ar
    55    28    53    1
    56    29    30   ar
    57    30    54    1
