@<TRIPOS>MOLECULE
IMPHY007453
 25 28 0 0 0
SMALL
GASTEIGER

@<TRIPOS>ATOM
      1 O           2.0000   -0.1519    0.0000 O.2     1  UNL1       -0.2673
      2 N           3.7602   -0.3401    0.0000 N.ar    1  UNL1       -0.2743
      3 N           5.3799   -2.4110    0.0000 N.ar    1  UNL1       -0.2535
      4 C           4.5692   -0.9279    0.0000 C.ar    1  UNL1        0.0831
      5 C           5.3782   -0.3401    0.0000 C.ar    1  UNL1        0.0115
      6 C           4.0692    0.6110    0.0000 C.ar    1  UNL1        0.0579
      7 C           5.0692    0.6110    0.0000 C.ar    1  UNL1        0.0082
      8 C           4.4763   -1.9653    0.0000 C.ar    1  UNL1        0.0885
      9 C           2.8022   -0.7490    0.0000 C.ar    1  UNL1        0.2563
     10 C           6.2345   -0.8710    0.0000 C.ar    1  UNL1       -0.0338
     11 C           3.5345    1.5049    0.0000 C.ar    1  UNL1       -0.0371
     12 C           5.6038    1.5049    0.0000 C.ar    1  UNL1       -0.0520
     13 C           3.5280   -2.3963    0.0000 C.ar    1  UNL1       -0.0291
     14 C           2.6853   -1.7841    0.0000 C.ar    1  UNL1        0.0054
     15 C           4.0484    2.4110    0.0000 C.ar    1  UNL1       -0.0598
     16 C           6.2353   -1.8786    0.0000 C.ar    1  UNL1        0.0290
     17 C           5.0900    2.4110    0.0000 C.ar    1  UNL1       -0.0611
     18 H           6.7761   -0.5693    0.0000 H       1  UNL1        0.0639
     19 H           2.9146    1.4978    0.0000 H       1  UNL1        0.0638
     20 H           6.2238    1.4978    0.0000 H       1  UNL1        0.0624
     21 H           3.4656   -3.0132    0.0000 H       1  UNL1        0.0641
     22 H           2.1179   -2.0341    0.0000 H       1  UNL1        0.0672
     23 H           3.7363    2.9467    0.0000 H       1  UNL1        0.0618
     24 H           6.7774   -2.1794    0.0000 H       1  UNL1        0.0830
     25 H           5.4021    2.9467    0.0000 H       1  UNL1        0.0618
@<TRIPOS>BOND
     1     1     9    2
     2     2     4   ar
     3     2     6   ar
     4     2     9   ar
     5     3     8   ar
     6     3    16   ar
     7     4     5   ar
     8     4     8   ar
     9     5     7   ar
    10     5    10   ar
    11     6     7   ar
    12     6    11   ar
    13     7    12   ar
    14     8    13   ar
    15     9    14   ar
    16    10    16   ar
    17    10    18    1
    18    11    15   ar
    19    11    19    1
    20    12    17   ar
    21    12    20    1
    22    13    14   ar
    23    13    21    1
    24    14    22    1
    25    15    17   ar
    26    15    23    1
    27    16    24    1
    28    17    25    1
