@<TRIPOS>MOLECULE
IMPHY017453
 36 37 0 0 0
SMALL
GASTEIGER

@<TRIPOS>ATOM
      1 O           2.5369   -0.7500    0.0000 O.3     1  UNL1       -0.4761
      2 OXT         3.4030   -2.2500    0.0000 O.2     1  UNL1       -0.2434
      3 N           5.1350   -1.2500    0.0000 N.ar    1  UNL1       -0.2482
      4 C           8.5991    0.7500    0.0000 C.3     1  UNL1       -0.0407
      5 C           9.4651    0.2500    0.0000 C.3     1  UNL1       -0.0502
      6 C           8.5991    1.7500    0.0000 C.3     1  UNL1       -0.0502
      7 C          10.3312    0.7500    0.0000 C.3     1  UNL1       -0.0528
      8 C           9.4651    2.2500    0.0000 C.3     1  UNL1       -0.0528
      9 C          10.3312    1.7500    0.0000 C.3     1  UNL1       -0.0530
     10 C           7.7331    0.2500    0.0000 C.3     1  UNL1       -0.0462
     11 C           6.8671    0.7500    0.0000 C.3     1  UNL1       -0.0260
     12 C           6.0010    0.2500    0.0000 C.ar    1  UNL1       -0.0292
     13 C           5.1350    0.7500    0.0000 C.ar    1  UNL1       -0.0549
     14 C           6.0010   -0.7500    0.0000 C.ar    1  UNL1        0.0317
     15 C           4.2690    0.2500    0.0000 C.ar    1  UNL1       -0.0290
     16 CA          4.2690   -0.7500    0.0000 C.ar    1  UNL1        0.1474
     17 C           3.4030   -1.2500    0.0000 C.2     1  UNL1        0.3553
     18 H           8.5991    0.1300    0.0000 H       1  UNL1        0.0301
     19 H           9.0666   -0.2249    0.0000 H       1  UNL1        0.0268
     20 H           9.8637   -0.2249    0.0000 H       1  UNL1        0.0268
     21 H           8.3871    2.3326    0.0000 H       1  UNL1        0.0268
     22 H           7.9885    1.6423    0.0000 H       1  UNL1        0.0268
     23 H          10.5432    0.1674    0.0000 H       1  UNL1        0.0265
     24 H          10.9417    0.8577    0.0000 H       1  UNL1        0.0265
     25 H           9.8637    2.7250    0.0000 H       1  UNL1        0.0265
     26 H           9.0666    2.7250    0.0000 H       1  UNL1        0.0265
     27 H          10.9417    1.6423    0.0000 H       1  UNL1        0.0265
     28 H          10.5432    2.3326    0.0000 H       1  UNL1        0.0265
     29 H           7.3346   -0.2249    0.0000 H       1  UNL1        0.0271
     30 H           8.1316   -0.2249    0.0000 H       1  UNL1        0.0271
     31 H           7.2656    1.2250    0.0000 H       1  UNL1        0.0314
     32 H           6.4685    1.2250    0.0000 H       1  UNL1        0.0314
     33 H           5.1350    1.3700    0.0000 H       1  UNL1        0.0621
     34 H           6.5380   -1.0600    0.0000 H       1  UNL1        0.0832
     35 H           3.7320    0.5600    0.0000 H       1  UNL1        0.0641
     36 H           2.0000   -1.0600    0.0000 H       1  UNL1        0.2955
@<TRIPOS>BOND
     1     1    17    1
     2     1    36    1
     3     2    17    2
     4     3    14   ar
     5     3    16   ar
     6     4     5    1
     7     4     6    1
     8     4    10    1
     9     4    18    1
    10     5     7    1
    11     5    19    1
    12     5    20    1
    13     6     8    1
    14     6    21    1
    15     6    22    1
    16     7     9    1
    17     7    23    1
    18     7    24    1
    19     8     9    1
    20     8    25    1
    21     8    26    1
    22     9    27    1
    23     9    28    1
    24    10    11    1
    25    10    29    1
    26    10    30    1
    27    11    12    1
    28    11    31    1
    29    11    32    1
    30    12    13   ar
    31    12    14   ar
    32    13    15   ar
    33    13    33    1
    34    14    34    1
    35    15    16   ar
    36    15    35    1
    37    16    17    1
