@<TRIPOS>MOLECULE
IMPHY002174
 74 77 0 0 0
SMALL
GASTEIGER

@<TRIPOS>ATOM
      1 O           4.7353   -3.6703    0.0000 O.3     1  UNL1       -0.3801
      2 O           5.6489   -4.1911    0.0000 O.2     1  UNL1       -0.2943
      3 O           2.0000   -3.1742    0.0000 O.2     1  UNL1       -0.2973
      4 C           7.3931   -0.1219    0.0000 C.3     1  UNL1       -0.0259
      5 C           7.3931   -1.1219    0.0000 C.3     1  UNL1       -0.0319
      6 C           6.5271   -1.6219    0.0000 C.3     1  UNL1       -0.0275
      7 C           5.6610   -1.1219    0.0000 C.3     1  UNL1       -0.0291
      8 C           4.7510   -1.6287    0.0000 C.3     1  UNL1        0.0075
      9 C           8.3393    0.1828    0.0000 C.3     1  UNL1       -0.0328
     10 C           6.5271    0.3781    0.0000 C.3     1  UNL1       -0.0468
     11 C           5.6610   -0.1219    0.0000 C.3     1  UNL1       -0.0488
     12 C           8.3393   -1.4266    0.0000 C.3     1  UNL1       -0.0492
     13 C           8.9229   -0.6219    0.0000 C.3     1  UNL1       -0.0492
     14 C           4.7430   -2.6703    0.0000 C.3     1  UNL1        0.1357
     15 C           6.5431   -2.6634    0.0000 C.3     1  UNL1        0.0121
     16 C           7.3931    0.8781    0.0000 C.3     1  UNL1       -0.0590
     17 C           8.6500    1.1334    0.0000 C.3     1  UNL1       -0.0405
     18 C           3.8242   -1.0647    0.0000 C.3     1  UNL1       -0.0376
     19 C           5.6451   -3.1912    0.0000 C.2     1  UNL1        0.1658
     20 C           4.7587   -0.6288    0.0000 C.3     1  UNL1       -0.0562
     21 C           3.8076   -3.2201    0.0000 C.3     1  UNL1        0.0421
     22 C           2.8763   -1.5926    0.0000 C.3     1  UNL1        0.0065
     23 C           9.6285    1.3396    0.0000 C.3     1  UNL1       -0.0502
     24 C           2.8680   -2.6776    0.0000 C.2     1  UNL1        0.1365
     25 C           7.9821    1.8777    0.0000 C.3     1  UNL1       -0.0621
     26 C           9.9391    2.2901    0.0000 C.3     1  UNL1       -0.0526
     27 C          10.9176    2.4963    0.0000 C.3     1  UNL1       -0.0507
     28 C          11.2283    3.4468    0.0000 C.3     1  UNL1       -0.0467
     29 C          12.2068    3.6531    0.0000 C.3     1  UNL1       -0.0627
     30 C          10.5605    4.1911    0.0000 C.3     1  UNL1       -0.0627
     31 H           7.4830   -1.9671    0.0000 H       1  UNL1        0.0309
     32 H           7.2664   -2.0412    0.0000 H       1  UNL1        0.0310
     33 H           6.3972   -0.6969    0.0000 H       1  UNL1        0.0310
     34 H           9.1790    0.3147    0.0000 H       1  UNL1        0.0309
     35 H           6.9256    0.8531    0.0000 H       1  UNL1        0.0271
     36 H           6.1285    0.8531    0.0000 H       1  UNL1        0.0271
     37 H           5.4490    0.4607    0.0000 H       1  UNL1        0.0268
     38 H           5.0504   -0.2296    0.0000 H       1  UNL1        0.0268
     39 H           8.0883   -1.9935    0.0000 H       1  UNL1        0.0268
     40 H           8.8767   -1.7358    0.0000 H       1  UNL1        0.0268
     41 H           9.3838   -1.0366    0.0000 H       1  UNL1        0.0268
     42 H           9.3838   -0.2072    0.0000 H       1  UNL1        0.0268
     43 H           6.7612   -3.2438    0.0000 H       1  UNL1        0.0345
     44 H           7.1523   -2.5479    0.0000 H       1  UNL1        0.0345
     45 H           8.0131    0.8781    0.0000 H       1  UNL1        0.0235
     46 H           7.3931    1.4981    0.0000 H       1  UNL1        0.0235
     47 H           6.7731    0.8781    0.0000 H       1  UNL1        0.0235
     48 H           8.0433    1.0055    0.0000 H       1  UNL1        0.0301
     49 H           4.2324   -0.5980    0.0000 H       1  UNL1        0.0276
     50 H           3.4343   -0.5826    0.0000 H       1  UNL1        0.0276
     51 H           5.3787   -0.6335    0.0000 H       1  UNL1        0.0236
     52 H           4.7635   -0.0088    0.0000 H       1  UNL1        0.0236
     53 H           4.1388   -0.6240    0.0000 H       1  UNL1        0.0236
     54 H           3.4103   -3.6960    0.0000 H       1  UNL1        0.0374
     55 H           4.2085   -3.6930    0.0000 H       1  UNL1        0.0374
     56 H           2.6718   -1.0073    0.0000 H       1  UNL1        0.0342
     57 H           2.2647   -1.6940    0.0000 H       1  UNL1        0.0342
     58 H           9.6490    0.7199    0.0000 H       1  UNL1        0.0268
     59 H          10.2423    1.2522    0.0000 H       1  UNL1        0.0268
     60 H           8.4436    2.2917    0.0000 H       1  UNL1        0.0233
     61 H           7.5681    2.3391    0.0000 H       1  UNL1        0.0233
     62 H           7.5207    1.4636    0.0000 H       1  UNL1        0.0233
     63 H           4.1960   -3.9762    0.0000 H       1  UNL1        0.2108
     64 H           9.9186    2.9098    0.0000 H       1  UNL1        0.0265
     65 H           9.3253    2.3774    0.0000 H       1  UNL1        0.0265
     66 H          10.9382    1.8767    0.0000 H       1  UNL1        0.0268
     67 H          11.5315    2.4090    0.0000 H       1  UNL1        0.0268
     68 H          11.4209    4.0362    0.0000 H       1  UNL1        0.0295
     69 H          11.0219    4.6052    0.0000 H       1  UNL1        0.0232
     70 H          10.1464    4.6526    0.0000 H       1  UNL1        0.0232
     71 H          10.0990    3.7771    0.0000 H       1  UNL1        0.0232
     72 H          12.3347    3.0464    0.0000 H       1  UNL1        0.0232
     73 H          12.8135    3.7809    0.0000 H       1  UNL1        0.0232
     74 H          12.0790    4.2597    0.0000 H       1  UNL1        0.0232
@<TRIPOS>BOND
     1    14     1    1
     2     1    63    1
     3     2    19    2
     4     3    24    2
     5     4     5    1
     6     4     9    1
     7     4    10    1
     8     4    16    1
     9     5     6    1
    10     5    12    1
    11     5    31    1
    12     6     7    1
    13     6    15    1
    14     6    32    1
    15     7     8    1
    16     7    11    1
    17     7    33    1
    18     8    14    1
    19     8    18    1
    20     8    20    1
    21     9    13    1
    22     9    17    1
    23     9    34    1
    24    10    11    1
    25    10    35    1
    26    10    36    1
    27    11    37    1
    28    11    38    1
    29    12    13    1
    30    12    39    1
    31    12    40    1
    32    13    41    1
    33    13    42    1
    34    14    19    1
    35    14    21    1
    36    15    19    1
    37    15    43    1
    38    15    44    1
    39    16    45    1
    40    16    46    1
    41    16    47    1
    42    17    23    1
    43    17    25    1
    44    17    48    1
    45    18    22    1
    46    18    49    1
    47    18    50    1
    48    20    51    1
    49    20    52    1
    50    20    53    1
    51    21    24    1
    52    21    54    1
    53    21    55    1
    54    22    24    1
    55    22    56    1
    56    22    57    1
    57    23    26    1
    58    23    58    1
    59    23    59    1
    60    25    60    1
    61    25    61    1
    62    25    62    1
    63    26    27    1
    64    26    64    1
    65    26    65    1
    66    27    28    1
    67    27    66    1
    68    27    67    1
    69    28    29    1
    70    28    30    1
    71    28    68    1
    72    29    72    1
    73    29    73    1
    74    29    74    1
    75    30    69    1
    76    30    70    1
    77    30    71    1
