@<TRIPOS>MOLECULE
IMPHY000259
 57 58 0 0 0
SMALL
GASTEIGER

@<TRIPOS>ATOM
      1 O           2.5369    3.1592    0.0000 O.3     1  UNL1       -0.3912
      2 O           5.9827   -2.8752    0.0000 O.3     1  UNL1       -0.3907
      3 O           8.5748   -3.4052    0.0000 O.3     1  UNL1       -0.3910
      4 C           5.1350    1.6592    0.0000 C.3     1  UNL1       -0.0221
      5 C           5.1350    2.6592    0.0000 C.3     1  UNL1       -0.0273
      6 C           4.2690    3.1592    0.0000 C.3     1  UNL1       -0.0056
      7 C           6.0290    1.1245    0.0000 C.3     1  UNL1       -0.0142
      8 C           4.2690    1.1592    0.0000 C.3     1  UNL1       -0.0445
      9 C           3.4030    2.6592    0.0000 C.3     1  UNL1        0.0606
     10 C           6.0290    3.1938    0.0000 C.3     1  UNL1       -0.0454
     11 C           3.4030    1.6592    0.0000 C.3     1  UNL1       -0.0258
     12 C           5.1350    0.6592    0.0000 C.3     1  UNL1       -0.0587
     13 C           6.9350    2.6800    0.0000 C.3     1  UNL1       -0.0314
     14 C           6.9350    1.6384    0.0000 C.2     1  UNL1       -0.0730
     15 C           6.0174    0.1246    0.0000 C.3     1  UNL1       -0.0422
     16 C           3.7690    4.0252    0.0000 C.3     1  UNL1       -0.0572
     17 C           4.7690    4.0252    0.0000 C.3     1  UNL1       -0.0572
     18 C           6.8776   -0.3854    0.0000 C.3     1  UNL1       -0.0290
     19 C           7.7991    1.1350    0.0000 C.2     1  UNL1       -0.0992
     20 C           6.8660   -1.3853    0.0000 C.2     1  UNL1       -0.0463
     21 C           5.9943   -1.8753    0.0000 C.3     1  UNL1        0.0654
     22 C           7.7262   -1.8953    0.0000 C.2     1  UNL1       -0.0576
     23 C           7.7146   -2.8952    0.0000 C.3     1  UNL1        0.0627
     24 H           5.1285    3.5091    0.0000 H       1  UNL1        0.0312
     25 H           6.5629    0.8093    0.0000 H       1  UNL1        0.0351
     26 H           3.8705    0.6842    0.0000 H       1  UNL1        0.0272
     27 H           4.6675    0.6842    0.0000 H       1  UNL1        0.0272
     28 H           3.4030    3.2792    0.0000 H       1  UNL1        0.0599
     29 H           6.4226    3.6728    0.0000 H       1  UNL1        0.0271
     30 H           5.6244    3.6636    0.0000 H       1  UNL1        0.0271
     31 H           2.7924    1.7668    0.0000 H       1  UNL1        0.0290
     32 H           3.1909    1.0766    0.0000 H       1  UNL1        0.0290
     33 H           4.5150    0.6592    0.0000 H       1  UNL1        0.0235
     34 H           5.1350    0.0392    0.0000 H       1  UNL1        0.0235
     35 H           5.7550    0.6592    0.0000 H       1  UNL1        0.0235
     36 H           7.5459    2.5739    0.0000 H       1  UNL1        0.0310
     37 H           7.1441    3.2637    0.0000 H       1  UNL1        0.0310
     38 H           5.4081    0.2393    0.0000 H       1  UNL1        0.0274
     39 H           5.7986   -0.4555    0.0000 H       1  UNL1        0.0274
     40 H           5.3059    3.7152    0.0000 H       1  UNL1        0.0236
     41 H           4.3059    4.3352    0.0000 H       1  UNL1        0.0236
     42 H           3.4590    4.5621    0.0000 H       1  UNL1        0.0236
     43 H           3.2320    3.7152    0.0000 H       1  UNL1        0.0236
     44 H           5.0790    4.5621    0.0000 H       1  UNL1        0.0236
     45 H           4.2320    4.3352    0.0000 H       1  UNL1        0.0236
     46 H           7.4869   -0.5001    0.0000 H       1  UNL1        0.0311
     47 H           7.0964    0.1947    0.0000 H       1  UNL1        0.0311
     48 H           2.0000    2.8492    0.0000 H       1  UNL1        0.2098
     49 H           7.7967    0.5150    0.0000 H       1  UNL1        0.0534
     50 H           8.3372    1.4430    0.0000 H       1  UNL1        0.0534
     51 H           5.7890   -1.2903    0.0000 H       1  UNL1        0.0604
     52 H           5.3825   -1.9759    0.0000 H       1  UNL1        0.0604
     53 H           8.2667   -1.5916    0.0000 H       1  UNL1        0.0595
     54 H           7.1053   -2.7805    0.0000 H       1  UNL1        0.0601
     55 H           7.4959   -3.4754    0.0000 H       1  UNL1        0.0601
     56 H           5.4422   -3.1790    0.0000 H       1  UNL1        0.2098
     57 H           8.5676   -4.0252    0.0000 H       1  UNL1        0.2098
@<TRIPOS>BOND
     1     9     1    1
     2     1    48    1
     3     2    21    1
     4     2    56    1
     5     3    23    1
     6     3    57    1
     7     4     5    1
     8     4     7    1
     9     4     8    1
    10     4    12    1
    11     5     6    1
    12     5    10    1
    13     5    24    1
    14     6     9    1
    15     6    16    1
    16     6    17    1
    17     7    14    1
    18     7    15    1
    19     7    25    1
    20     8    11    1
    21     8    26    1
    22     8    27    1
    23     9    11    1
    24     9    28    1
    25    10    13    1
    26    10    29    1
    27    10    30    1
    28    11    31    1
    29    11    32    1
    30    12    33    1
    31    12    34    1
    32    12    35    1
    33    13    14    1
    34    13    36    1
    35    13    37    1
    36    14    19    2
    37    15    18    1
    38    15    38    1
    39    15    39    1
    40    16    41    1
    41    16    42    1
    42    16    43    1
    43    17    40    1
    44    17    44    1
    45    17    45    1
    46    18    20    1
    47    18    46    1
    48    18    47    1
    49    19    49    1
    50    19    50    1
    51    20    21    1
    52    20    22    2
    53    21    51    1
    54    21    52    1
    55    22    23    1
    56    22    53    1
    57    23    54    1
    58    23    55    1
