@<TRIPOS>MOLECULE
IMPHY004997
 69 70 0 0 0
SMALL
GASTEIGER

@<TRIPOS>ATOM
      1 O           8.9282   -1.3450    0.0000 O.3     1  UNL1       -0.4614
      2 O           8.0622   -2.8450    0.0000 O.3     1  UNL1       -0.4614
      3 O           7.1962    3.6550    0.0000 O.3     1  UNL1       -0.4913
      4 O          10.6603    3.6550    0.0000 O.3     1  UNL1       -0.4913
      5 O           9.7942    0.1550    0.0000 O.2     1  UNL1       -0.2512
      6 O           7.1962   -4.3450    0.0000 O.2     1  UNL1       -0.2512
      7 O           2.0000   -2.3450    0.0000 O.3     1  UNL1       -0.4915
      8 O           8.9282    4.6550    0.0000 O.3     1  UNL1       -0.5009
      9 O           2.0000   -4.3450    0.0000 O.3     1  UNL1       -0.5033
     10 C           7.1962   -1.3450    0.0000 C.3     1  UNL1        0.0216
     11 C           8.0622   -0.8450    0.0000 C.3     1  UNL1        0.1067
     12 C           7.1962   -2.3450    0.0000 C.3     1  UNL1        0.1067
     13 C           8.0622    0.1550    0.0000 C.3     1  UNL1       -0.0116
     14 C           6.3301   -2.8450    0.0000 C.3     1  UNL1       -0.0116
     15 C           8.9282    0.6550    0.0000 C.3     1  UNL1       -0.0241
     16 C           5.4641   -2.3450    0.0000 C.3     1  UNL1       -0.0242
     17 C           8.9282    1.6550    0.0000 C.ar    1  UNL1       -0.0401
     18 C           4.5981   -2.8450    0.0000 C.ar    1  UNL1       -0.0436
     19 C           9.7942    2.1550    0.0000 C.ar    1  UNL1       -0.0129
     20 C           8.0622    2.1550    0.0000 C.ar    1  UNL1       -0.0129
     21 C           3.7320   -2.3450    0.0000 C.ar    1  UNL1       -0.0131
     22 C           9.7942   -0.8450    0.0000 C.2     1  UNL1        0.3042
     23 C           8.0622   -3.8450    0.0000 C.2     1  UNL1        0.3042
     24 C           4.5981   -3.8450    0.0000 C.ar    1  UNL1       -0.0549
     25 C           8.0622    3.1550    0.0000 C.ar    1  UNL1        0.1652
     26 C           9.7942    3.1550    0.0000 C.ar    1  UNL1        0.1652
     27 C           2.8660   -2.8450    0.0000 C.ar    1  UNL1        0.1615
     28 C           8.9282    3.6550    0.0000 C.ar    1  UNL1        0.2010
     29 C           3.7320   -4.3450    0.0000 C.ar    1  UNL1       -0.0163
     30 C           2.8660   -3.8450    0.0000 C.ar    1  UNL1        0.1585
     31 C          10.6603   -1.3450    0.0000 C.3     1  UNL1        0.0332
     32 C           8.9282   -4.3450    0.0000 C.3     1  UNL1        0.0332
     33 C           6.3301    3.1550    0.0000 C.3     1  UNL1        0.0790
     34 C          11.5263    3.1550    0.0000 C.3     1  UNL1        0.0790
     35 C           2.0000   -1.3450    0.0000 C.3     1  UNL1        0.0790
     36 H           6.9841   -0.7624    0.0000 H       1  UNL1        0.0337
     37 H           6.5856   -1.4527    0.0000 H       1  UNL1        0.0337
     38 H           8.0622   -1.6950    0.0000 H       1  UNL1        0.0735
     39 H           7.9323   -1.9200    0.0000 H       1  UNL1        0.0735
     40 H           7.8501    0.7376    0.0000 H       1  UNL1        0.0304
     41 H           7.4516    0.0473    0.0000 H       1  UNL1        0.0304
     42 H           5.9316   -3.3200    0.0000 H       1  UNL1        0.0304
     43 H           6.7287   -3.3200    0.0000 H       1  UNL1        0.0304
     44 H           9.1403    0.0724    0.0000 H       1  UNL1        0.0314
     45 H           9.5388    0.7627    0.0000 H       1  UNL1        0.0314
     46 H           5.8626   -1.8700    0.0000 H       1  UNL1        0.0314
     47 H           5.0656   -1.8700    0.0000 H       1  UNL1        0.0314
     48 H          10.3312    1.8450    0.0000 H       1  UNL1        0.0658
     49 H           7.5252    1.8450    0.0000 H       1  UNL1        0.0658
     50 H           3.7320   -1.7250    0.0000 H       1  UNL1        0.0658
     51 H           5.1350   -4.1550    0.0000 H       1  UNL1        0.0621
     52 H           3.7320   -4.9650    0.0000 H       1  UNL1        0.0655
     53 H          10.3503   -1.8819    0.0000 H       1  UNL1        0.0342
     54 H          11.1972   -1.6550    0.0000 H       1  UNL1        0.0342
     55 H          10.9703   -0.8081    0.0000 H       1  UNL1        0.0342
     56 H           8.6182   -4.8819    0.0000 H       1  UNL1        0.0342
     57 H           9.4651   -4.6550    0.0000 H       1  UNL1        0.0342
     58 H           9.2382   -3.8081    0.0000 H       1  UNL1        0.0342
     59 H           9.4651    4.9650    0.0000 H       1  UNL1        0.2924
     60 H           2.0000   -4.9650    0.0000 H       1  UNL1        0.2923
     61 H           6.0201    3.6919    0.0000 H       1  UNL1        0.0660
     62 H           5.7932    2.8450    0.0000 H       1  UNL1        0.0660
     63 H           6.6401    2.6181    0.0000 H       1  UNL1        0.0660
     64 H          11.2163    2.6181    0.0000 H       1  UNL1        0.0660
     65 H          12.0632    2.8450    0.0000 H       1  UNL1        0.0660
     66 H          11.8363    3.6919    0.0000 H       1  UNL1        0.0660
     67 H           2.6200   -1.3450    0.0000 H       1  UNL1        0.0660
     68 H           2.0000   -0.7250    0.0000 H       1  UNL1        0.0660
     69 H           1.3800   -1.3450    0.0000 H       1  UNL1        0.0660
@<TRIPOS>BOND
     1     1    11    1
     2     1    22    1
     3     2    12    1
     4     2    23    1
     5     3    25    1
     6     3    33    1
     7     4    26    1
     8     4    34    1
     9     5    22    2
    10     6    23    2
    11     7    27    1
    12     7    35    1
    13     8    28    1
    14     8    59    1
    15     9    30    1
    16     9    60    1
    17    10    11    1
    18    10    12    1
    19    10    36    1
    20    10    37    1
    21    11    13    1
    22    11    38    1
    23    12    14    1
    24    12    39    1
    25    13    15    1
    26    13    40    1
    27    13    41    1
    28    14    16    1
    29    14    42    1
    30    14    43    1
    31    15    17    1
    32    15    44    1
    33    15    45    1
    34    16    18    1
    35    16    46    1
    36    16    47    1
    37    17    19   ar
    38    17    20   ar
    39    18    21   ar
    40    18    24   ar
    41    19    26   ar
    42    19    48    1
    43    20    25   ar
    44    20    49    1
    45    21    27   ar
    46    21    50    1
    47    22    31    1
    48    23    32    1
    49    24    29   ar
    50    24    51    1
    51    25    28   ar
    52    26    28   ar
    53    27    30   ar
    54    29    30   ar
    55    29    52    1
    56    31    53    1
    57    31    54    1
    58    31    55    1
    59    32    56    1
    60    32    57    1
    61    32    58    1
    62    33    61    1
    63    33    62    1
    64    33    63    1
    65    34    64    1
    66    34    65    1
    67    34    66    1
    68    35    67    1
    69    35    68    1
    70    35    69    1
