@<TRIPOS>MOLECULE
IMPHY005741
 82 86 0 0 0
SMALL
GASTEIGER

@<TRIPOS>ATOM
      1 O           2.0000   -3.2456    0.0000 O.2     1  UNL1       -0.2968
      2 C           5.5301   -1.2214    0.0000 C.3     1  UNL1       -0.0194
      3 C           4.6641   -1.7214    0.0000 C.3     1  UNL1       -0.0187
      4 C           4.6638   -0.7210    0.0000 C.3     1  UNL1       -0.0401
      5 C           6.3961   -1.7214    0.0000 C.3     1  UNL1       -0.0289
      6 C           7.3062   -1.2146    0.0000 C.3     1  UNL1       -0.0231
      7 C           4.6641   -2.7214    0.0000 C.3     1  UNL1       -0.0230
      8 C           5.5141   -0.1799    0.0000 C.3     1  UNL1       -0.0460
      9 C           7.3142   -0.1730    0.0000 C.3     1  UNL1       -0.0233
     10 C           3.7702   -1.1868    0.0000 C.3     1  UNL1       -0.0399
     11 C           6.3961   -2.7214    0.0000 C.3     1  UNL1       -0.0489
     12 C           6.4121    0.3478    0.0000 C.3     1  UNL1       -0.0463
     13 C           5.5301   -3.2214    0.0000 C.3     1  UNL1       -0.0485
     14 C           3.7702   -3.2561    0.0000 C.3     1  UNL1        0.0267
     15 C           8.3022    0.1368    0.0000 C.3     1  UNL1       -0.0325
     16 C           8.2893   -1.5396    0.0000 C.3     1  UNL1       -0.0466
     17 C           8.9036   -0.7061    0.0000 C.3     1  UNL1       -0.0489
     18 C           2.8641   -1.7006    0.0000 C.3     1  UNL1        0.0069
     19 C           7.2984   -2.2146    0.0000 C.3     1  UNL1       -0.0588
     20 C           7.3219    0.8270    0.0000 C.3     1  UNL1       -0.0588
     21 C           2.8641   -2.7423    0.0000 C.2     1  UNL1        0.1392
     22 C           8.6202    1.0849    0.0000 C.3     1  UNL1       -0.0405
     23 C           3.2802   -4.1279    0.0000 C.3     1  UNL1       -0.0528
     24 C           4.2801   -4.1163    0.0000 C.3     1  UNL1       -0.0528
     25 C           9.6003    1.2836    0.0000 C.3     1  UNL1       -0.0497
     26 C           7.9581    1.8343    0.0000 C.3     1  UNL1       -0.0621
     27 C           9.9182    2.2317    0.0000 C.3     1  UNL1       -0.0465
     28 C          10.8983    2.4303    0.0000 C.3     1  UNL1       -0.0232
     29 C          11.5604    1.6809    0.0000 C.3     1  UNL1       -0.0587
     30 C          11.2163    3.3784    0.0000 C.2     1  UNL1       -0.0769
     31 C          12.1964    3.5771    0.0000 C.3     1  UNL1       -0.0438
     32 C          10.5542    4.1279    0.0000 C.2     1  UNL1       -0.0995
     33 H           4.8759   -0.1384    0.0000 H       1  UNL1        0.0276
     34 H           4.0532   -0.6134    0.0000 H       1  UNL1        0.0276
     35 H           7.1290   -2.1521    0.0000 H       1  UNL1        0.0312
     36 H           4.6706   -3.5714    0.0000 H       1  UNL1        0.0316
     37 H           5.2960    0.4005    0.0000 H       1  UNL1        0.0271
     38 H           4.9049   -0.2954    0.0000 H       1  UNL1        0.0271
     39 H           4.1748   -0.7170    0.0000 H       1  UNL1        0.0275
     40 H           3.3765   -0.7078    0.0000 H       1  UNL1        0.0275
     41 H           6.6082   -3.3041    0.0000 H       1  UNL1        0.0268
     42 H           7.0067   -2.6138    0.0000 H       1  UNL1        0.0268
     43 H           6.8094    0.8238    0.0000 H       1  UNL1        0.0271
     44 H           6.0111    0.8207    0.0000 H       1  UNL1        0.0271
     45 H           5.1316   -3.6964    0.0000 H       1  UNL1        0.0268
     46 H           5.9286   -3.6964    0.0000 H       1  UNL1        0.0268
     47 H           9.1429    0.2622    0.0000 H       1  UNL1        0.0309
     48 H           8.0339   -2.1046    0.0000 H       1  UNL1        0.0271
     49 H           8.8243   -1.8530    0.0000 H       1  UNL1        0.0271
     50 H           9.3613   -1.1244    0.0000 H       1  UNL1        0.0268
     51 H           9.3677   -0.2949    0.0000 H       1  UNL1        0.0268
     52 H           2.6550   -1.1170    0.0000 H       1  UNL1        0.0342
     53 H           2.2532   -1.8067    0.0000 H       1  UNL1        0.0342
     54 H           6.6785   -2.2098    0.0000 H       1  UNL1        0.0235
     55 H           7.2937   -2.8346    0.0000 H       1  UNL1        0.0235
     56 H           7.9184   -2.2194    0.0000 H       1  UNL1        0.0235
     57 H           7.9419    0.8222    0.0000 H       1  UNL1        0.0235
     58 H           7.3267    1.4470    0.0000 H       1  UNL1        0.0235
     59 H           6.7019    0.8317    0.0000 H       1  UNL1        0.0235
     60 H           8.8173    1.6727    0.0000 H       1  UNL1        0.0301
     61 H           2.7397   -3.8241    0.0000 H       1  UNL1        0.0239
     62 H           2.9764   -4.6684    0.0000 H       1  UNL1        0.0239
     63 H           3.7468   -4.4325    0.0000 H       1  UNL1        0.0239
     64 H           4.5963   -4.6496    0.0000 H       1  UNL1        0.0239
     65 H           4.8134   -3.8001    0.0000 H       1  UNL1        0.0239
     66 H           3.8207   -4.4316    0.0000 H       1  UNL1        0.0239
     67 H           9.6160    0.6638    0.0000 H       1  UNL1        0.0268
     68 H          10.2134    1.1915    0.0000 H       1  UNL1        0.0268
     69 H           8.4228    2.2448    0.0000 H       1  UNL1        0.0233
     70 H           7.5476    2.2990    0.0000 H       1  UNL1        0.0233
     71 H           7.4935    1.4238    0.0000 H       1  UNL1        0.0233
     72 H           9.9024    2.8515    0.0000 H       1  UNL1        0.0271
     73 H           9.3051    2.3238    0.0000 H       1  UNL1        0.0271
     74 H          10.7012    1.8425    0.0000 H       1  UNL1        0.0343
     75 H          11.0957    1.2704    0.0000 H       1  UNL1        0.0235
     76 H          11.9709    1.2163    0.0000 H       1  UNL1        0.0235
     77 H          12.0250    2.0914    0.0000 H       1  UNL1        0.0235
     78 H          12.3195    2.9695    0.0000 H       1  UNL1        0.0274
     79 H          12.8040    3.7003    0.0000 H       1  UNL1        0.0274
     80 H          12.0732    4.1848    0.0000 H       1  UNL1        0.0274
     81 H          10.7513    4.7157    0.0000 H       1  UNL1        0.0534
     82 H           9.9466    4.0047    0.0000 H       1  UNL1        0.0534
@<TRIPOS>BOND
     1     1    21    2
     2     2     3    1
     3     2     4    1
     4     2     5    1
     5     2     8    1
     6     3     4    1
     7     3     7    1
     8     3    10    1
     9     4    33    1
    10     4    34    1
    11     5     6    1
    12     5    11    1
    13     5    35    1
    14     6     9    1
    15     6    16    1
    16     6    19    1
    17     7    13    1
    18     7    14    1
    19     7    36    1
    20     8    12    1
    21     8    37    1
    22     8    38    1
    23     9    12    1
    24     9    15    1
    25     9    20    1
    26    10    18    1
    27    10    39    1
    28    10    40    1
    29    11    13    1
    30    11    41    1
    31    11    42    1
    32    12    43    1
    33    12    44    1
    34    13    45    1
    35    13    46    1
    36    14    21    1
    37    14    23    1
    38    14    24    1
    39    15    17    1
    40    15    22    1
    41    15    47    1
    42    16    17    1
    43    16    48    1
    44    16    49    1
    45    17    50    1
    46    17    51    1
    47    18    21    1
    48    18    52    1
    49    18    53    1
    50    19    54    1
    51    19    55    1
    52    19    56    1
    53    20    57    1
    54    20    58    1
    55    20    59    1
    56    22    25    1
    57    22    26    1
    58    22    60    1
    59    23    61    1
    60    23    62    1
    61    23    66    1
    62    24    63    1
    63    24    64    1
    64    24    65    1
    65    25    27    1
    66    25    67    1
    67    25    68    1
    68    26    69    1
    69    26    70    1
    70    26    71    1
    71    27    28    1
    72    27    72    1
    73    27    73    1
    74    28    29    1
    75    28    30    1
    76    28    74    1
    77    29    75    1
    78    29    76    1
    79    29    77    1
    80    30    31    1
    81    30    32    2
    82    31    78    1
    83    31    79    1
    84    31    80    1
    85    32    81    1
    86    32    82    1
