@<TRIPOS>MOLECULE
IMPHY001361
 17 17 0 0 0
SMALL
GASTEIGER

@<TRIPOS>ATOM
      1 O           2.0000   -1.3450    0.0000 O.3     1  UNL1       -0.5066
      2 O           3.7320    1.6550    0.0000 O.3     1  UNL1       -0.5066
      3 C           4.5981   -0.8450    0.0000 C.ar    1  UNL1       -0.0436
      4 C           4.5981    0.1550    0.0000 C.ar    1  UNL1       -0.0170
      5 C           3.7320   -1.3450    0.0000 C.ar    1  UNL1       -0.0170
      6 C           2.8660   -0.8450    0.0000 C.ar    1  UNL1        0.1206
      7 C           3.7320    0.6550    0.0000 C.ar    1  UNL1        0.1206
      8 C           2.8660    0.1550    0.0000 C.ar    1  UNL1        0.0213
      9 C           5.4641   -1.3450    0.0000 C.3     1  UNL1       -0.0395
     10 H           5.1350    0.4650    0.0000 H       1  UNL1        0.0657
     11 H           3.7320   -1.9650    0.0000 H       1  UNL1        0.0657
     12 H           2.3291    0.4650    0.0000 H       1  UNL1        0.0691
     13 H           5.1541   -1.8819    0.0000 H       1  UNL1        0.0278
     14 H           6.0010   -1.6550    0.0000 H       1  UNL1        0.0278
     15 H           5.7741   -0.8081    0.0000 H       1  UNL1        0.0278
     16 H           2.0000   -1.9650    0.0000 H       1  UNL1        0.2921
     17 H           4.2690    1.9650    0.0000 H       1  UNL1        0.2921
@<TRIPOS>BOND
     1     1     6    1
     2     1    16    1
     3     2     7    1
     4     2    17    1
     5     3     4   ar
     6     3     5   ar
     7     3     9    1
     8     4     7   ar
     9     4    10    1
    10     5     6   ar
    11     5    11    1
    12     6     8   ar
    13     7     8   ar
    14     8    12    1
    15     9    13    1
    16     9    14    1
    17     9    15    1
