@<TRIPOS>MOLECULE
IMPHY003287
 24 24 0 0 0
SMALL
GASTEIGER

@<TRIPOS>ATOM
      1 O           2.0000    1.2220    0.0000 O.2     1  UNL1       -0.2917
      2 O           3.7320   -1.7780    0.0000 O.2     1  UNL1       -0.5032
      3 O           5.4641   -0.7780    0.0000 O.2     1  UNL1       -0.2888
      4 C           3.7320    1.2220    0.0000 C.3     1  UNL1        0.0349
      5 C           4.5981    0.7220    0.0000 C.3     1  UNL1        0.0257
      6 C           2.8660    0.7220    0.0000 C.2     1  UNL1        0.1685
      7 C           4.2320    2.0880    0.0000 C.3     1  UNL1       -0.0523
      8 C           3.2320    2.0880    0.0000 C.3     1  UNL1       -0.0523
      9 C           2.8660   -0.2780    0.0000 C.2     1  UNL1        0.0373
     10 C           4.5981   -0.2780    0.0000 C.2     1  UNL1        0.1984
     11 C           3.7320   -0.7780    0.0000 C.2     1  UNL1        0.1655
     12 C           2.0000   -0.7780    0.0000 C.3     1  UNL1       -0.0328
     13 H           5.2087    0.6143    0.0000 H       1  UNL1        0.0356
     14 H           4.8101    1.3046    0.0000 H       1  UNL1        0.0356
     15 H           4.7690    1.7780    0.0000 H       1  UNL1        0.0239
     16 H           4.5420    2.6250    0.0000 H       1  UNL1        0.0239
     17 H           3.6951    2.3980    0.0000 H       1  UNL1        0.0239
     18 H           3.7690    2.3980    0.0000 H       1  UNL1        0.0239
     19 H           2.9220    2.6250    0.0000 H       1  UNL1        0.0239
     20 H           2.6951    1.7780    0.0000 H       1  UNL1        0.0239
     21 H           1.6900   -0.2411    0.0000 H       1  UNL1        0.0280
     22 H           1.4631   -1.0880    0.0000 H       1  UNL1        0.0280
     23 H           2.3100   -1.3150    0.0000 H       1  UNL1        0.0280
     24 H           4.2690   -2.0880    0.0000 H       1  UNL1        0.2923
@<TRIPOS>BOND
     1     1     6    2
     2     2    11    1
     3     2    24    1
     4     3    10    2
     5     4     5    1
     6     4     6    1
     7     4     7    1
     8     4     8    1
     9     5    10    1
    10     5    13    1
    11     5    14    1
    12     6     9    1
    13     7    15    1
    14     7    16    1
    15     7    17    1
    16     8    18    1
    17     8    19    1
    18     8    20    1
    19     9    11    2
    20     9    12    1
    21    10    11    1
    22    12    21    1
    23    12    22    1
    24    12    23    1
