@<TRIPOS>MOLECULE
IMPHY016979
 7 6 0 0 0
SMALL
GASTEIGER

@<TRIPOS>ATOM
      1 S           2.8660   -0.5000    0.0000 S.3     1  UNL1       -0.0499
      2 N           4.5981    0.5000    0.0000 N.1     1  UNL1       -0.1838
      3 C           2.0000   -0.0000    0.0000 C.3     1  UNL1       -0.0041
      4 C           3.7320    0.0000    0.0000 C.1     1  UNL1        0.1326
      5 H           2.3100    0.5369    0.0000 H       1  UNL1        0.0350
      6 H           1.4631    0.3100    0.0000 H       1  UNL1        0.0350
      7 H           1.6900   -0.5369    0.0000 H       1  UNL1        0.0350
@<TRIPOS>BOND
     1     1     3    1
     2     1     4    1
     3     2     4    3
     4     3     5    1
     5     3     6    1
     6     3     7    1
