@<TRIPOS>MOLECULE
IMPHY012878
 50 53 0 0 0
SMALL
GASTEIGER

@<TRIPOS>ATOM
      1 O           4.2690   -2.4276    0.0000 O.3     1  UNL1       -0.3313
      2 O           6.0010   -2.4276    0.0000 O.3     1  UNL1       -0.4608
      3 O           4.2690   -5.4276    0.0000 O.3     1  UNL1       -0.3864
      4 O           2.5369   -4.4276    0.0000 O.3     1  UNL1       -0.3865
      5 O           6.0010   -4.4276    0.0000 O.3     1  UNL1       -0.3829
      6 O           2.5369   -1.4276    0.0000 O.3     1  UNL1       -0.3924
      7 O           6.8671    2.0724    0.0000 O.2     1  UNL1       -0.4545
      8 O           4.2690    3.5724    0.0000 O.2     1  UNL1       -0.2870
      9 O           8.6530    5.1175    0.0000 O.3     1  UNL1       -0.5066
     10 C           4.2690   -4.4276    0.0000 C.3     1  UNL1        0.1152
     11 C           3.4030   -3.9276    0.0000 C.3     1  UNL1        0.1120
     12 C           5.1350   -3.9276    0.0000 C.3     1  UNL1        0.1454
     13 C           3.4030   -2.9276    0.0000 C.3     1  UNL1        0.1140
     14 C           5.1350   -2.9276    0.0000 C.3     1  UNL1        0.2308
     15 C           2.5369   -2.4276    0.0000 C.3     1  UNL1        0.0731
     16 C           6.0010   -1.4276    0.0000 C.ar    1  UNL1        0.1240
     17 C           6.8671   -0.9276    0.0000 C.ar    1  UNL1       -0.0192
     18 C           5.1350   -0.9276    0.0000 C.ar    1  UNL1       -0.0192
     19 C           6.0010    0.5724    0.0000 C.ar    1  UNL1        0.0176
     20 C           6.8671    0.0725    0.0000 C.ar    1  UNL1       -0.0476
     21 C           5.1350    0.0725    0.0000 C.ar    1  UNL1       -0.0476
     22 C           6.0010    1.5724    0.0000 C.ar    1  UNL1        0.1392
     23 C           6.8671    3.0724    0.0000 C.ar    1  UNL1        0.1427
     24 C           6.0010    3.5724    0.0000 C.ar    1  UNL1        0.0642
     25 C           5.1350    2.0724    0.0000 C.ar    1  UNL1        0.0287
     26 C           5.1350    3.0724    0.0000 C.ar    1  UNL1        0.1931
     27 C           7.7771    3.5793    0.0000 C.ar    1  UNL1        0.0229
     28 C           5.9850    4.6140    0.0000 C.ar    1  UNL1       -0.0439
     29 C           7.7851    4.6209    0.0000 C.ar    1  UNL1        0.1204
     30 C           6.8830    5.1417    0.0000 C.ar    1  UNL1       -0.0193
     31 H           4.8059   -4.7376    0.0000 H       1  UNL1        0.0648
     32 H           2.8660   -3.6176    0.0000 H       1  UNL1        0.0647
     33 H           5.6720   -3.6176    0.0000 H       1  UNL1        0.0683
     34 H           3.4030   -2.3076    0.0000 H       1  UNL1        0.0647
     35 H           5.1350   -2.3076    0.0000 H       1  UNL1        0.1084
     36 H           1.9264   -2.3199    0.0000 H       1  UNL1        0.0584
     37 H           2.3249   -3.0102    0.0000 H       1  UNL1        0.0584
     38 H           3.7320   -5.7376    0.0000 H       1  UNL1        0.2100
     39 H           2.0000   -4.1175    0.0000 H       1  UNL1        0.2100
     40 H           6.5380   -4.1175    0.0000 H       1  UNL1        0.2102
     41 H           2.0000   -1.1176    0.0000 H       1  UNL1        0.2095
     42 H           7.4040   -1.2376    0.0000 H       1  UNL1        0.0654
     43 H           4.5981   -1.2376    0.0000 H       1  UNL1        0.0654
     44 H           7.4040    0.3824    0.0000 H       1  UNL1        0.0626
     45 H           4.5981    0.3824    0.0000 H       1  UNL1        0.0626
     46 H           4.5981    1.7624    0.0000 H       1  UNL1        0.0693
     47 H           8.3104    3.2631    0.0000 H       1  UNL1        0.0691
     48 H           5.4445    4.9177    0.0000 H       1  UNL1        0.0627
     49 H           6.8806    5.7617    0.0000 H       1  UNL1        0.0654
     50 H           8.6554    5.7376    0.0000 H       1  UNL1        0.2921
@<TRIPOS>BOND
     1     1    13    1
     2     1    14    1
     3    14     2    1
     4     2    16    1
     5    10     3    1
     6     3    38    1
     7    11     4    1
     8     4    39    1
     9    12     5    1
    10     5    40    1
    11     6    15    1
    12     6    41    1
    13     7    22   ar
    14     7    23   ar
    15     8    26    2
    16     9    29    1
    17     9    50    1
    18    10    11    1
    19    10    12    1
    20    10    31    1
    21    11    13    1
    22    11    32    1
    23    12    14    1
    24    12    33    1
    25    13    15    1
    26    13    34    1
    27    14    35    1
    28    15    36    1
    29    15    37    1
    30    16    17   ar
    31    16    18   ar
    32    17    20   ar
    33    17    42    1
    34    18    21   ar
    35    18    43    1
    36    19    20   ar
    37    19    21   ar
    38    19    22    1
    39    20    44    1
    40    21    45    1
    41    22    25   ar
    42    23    24   ar
    43    23    27   ar
    44    24    26   ar
    45    24    28   ar
    46    25    26   ar
    47    25    46    1
    48    27    29   ar
    49    27    47    1
    50    28    30   ar
    51    28    48    1
    52    29    30   ar
    53    30    49    1
