@<TRIPOS>MOLECULE
IMPHY001899
 42 45 0 0 0
SMALL
GASTEIGER

@<TRIPOS>ATOM
      1 O           9.8984    1.1276    0.0000 O.3     1  UNL1       -0.4814
      2 O           6.3624    1.1555    0.0000 O.2     1  UNL1       -0.4613
      3 O           8.1224   -1.8792    0.0000 O.3     1  UNL1       -0.5058
      4 O           6.3740   -1.9138    0.0000 O.2     1  UNL1       -0.2863
      5 O           3.7205    0.5933    0.0000 O.3     1  UNL1       -0.5060
      6 O           2.0000   -2.4134    0.0000 O.3     1  UNL1       -0.5066
      7 C           9.9065    2.1692    0.0000 C.3     1  UNL1        0.1235
      8 C           8.1224    1.1208    0.0000 C.ar    1  UNL1        0.0597
      9 C           8.9884    0.6208    0.0000 C.ar    1  UNL1        0.1359
     10 C           9.0044    2.6901    0.0000 C.2     1  UNL1       -0.0408
     11 C           7.2564    0.6208    0.0000 C.ar    1  UNL1        0.1525
     12 C           8.1063    2.1623    0.0000 C.2     1  UNL1       -0.0478
     13 C           7.2564   -0.3792    0.0000 C.ar    1  UNL1        0.1066
     14 C          10.4098    3.0333    0.0000 C.3     1  UNL1       -0.0215
     15 C          10.9065    2.1654    0.0000 C.3     1  UNL1       -0.0215
     16 C           8.9884   -0.3792    0.0000 C.ar    1  UNL1        0.0231
     17 C           8.1224   -0.8792    0.0000 C.ar    1  UNL1        0.1347
     18 C           6.3624   -0.9139    0.0000 C.ar    1  UNL1        0.2038
     19 C           5.4564   -0.4000    0.0000 C.ar    1  UNL1        0.0679
     20 C           5.4564    0.6416    0.0000 C.ar    1  UNL1        0.1040
     21 C           4.5923   -0.9033    0.0000 C.ar    1  UNL1        0.0304
     22 C           3.7243   -0.4067    0.0000 C.ar    1  UNL1        0.1282
     23 C           4.5961   -1.9033    0.0000 C.ar    1  UNL1       -0.0469
     24 C           2.8602   -0.9100    0.0000 C.ar    1  UNL1        0.0219
     25 C           3.7320   -2.4067    0.0000 C.ar    1  UNL1       -0.0194
     26 C           2.8641   -1.9100    0.0000 C.ar    1  UNL1        0.1204
     27 H           9.0020    3.3101    0.0000 H       1  UNL1        0.0611
     28 H           7.5659    2.4661    0.0000 H       1  UNL1        0.0624
     29 H          10.9455    2.7213    0.0000 H       1  UNL1        0.0271
     30 H          10.9041    1.5454    0.0000 H       1  UNL1        0.0271
     31 H          11.5264    2.1630    0.0000 H       1  UNL1        0.0271
     32 H          10.9088    2.7854    0.0000 H       1  UNL1        0.0271
     33 H          10.7219    3.5691    0.0000 H       1  UNL1        0.0271
     34 H           9.8740    3.3454    0.0000 H       1  UNL1        0.0271
     35 H           9.5254   -0.6892    0.0000 H       1  UNL1        0.0691
     36 H           4.9206    0.9537    0.0000 H       1  UNL1        0.1037
     37 H           5.1343   -2.2113    0.0000 H       1  UNL1        0.0626
     38 H           8.6593   -2.1892    0.0000 H       1  UNL1        0.2922
     39 H           2.3221   -0.6021    0.0000 H       1  UNL1        0.0691
     40 H           3.7344   -3.0267    0.0000 H       1  UNL1        0.0654
     41 H           3.1824    0.9012    0.0000 H       1  UNL1        0.2922
     42 H           2.0024   -3.0333    0.0000 H       1  UNL1        0.2921
@<TRIPOS>BOND
     1     1     7    1
     2     1     9    1
     3     2    11   ar
     4     2    20   ar
     5     3    17    1
     6     3    38    1
     7     4    18    2
     8     5    22    1
     9     5    41    1
    10     6    26    1
    11     6    42    1
    12     7    10    1
    13     7    14    1
    14     7    15    1
    15     8     9   ar
    16     8    11   ar
    17     8    12    1
    18     9    16   ar
    19    10    12    2
    20    10    27    1
    21    11    13   ar
    22    12    28    1
    23    13    17   ar
    24    13    18   ar
    25    14    29    1
    26    14    33    1
    27    14    34    1
    28    15    30    1
    29    15    31    1
    30    15    32    1
    31    16    17   ar
    32    16    35    1
    33    18    19   ar
    34    19    20   ar
    35    19    21    1
    36    20    36    1
    37    21    22   ar
    38    21    23   ar
    39    22    24   ar
    40    23    25   ar
    41    23    37    1
    42    24    26   ar
    43    24    39    1
    44    25    26   ar
    45    25    40    1
