@<TRIPOS>MOLECULE
IMPHY011066
 44 45 0 0 0
SMALL
GASTEIGER

@<TRIPOS>ATOM
      1 O           2.6200   -2.1830    0.0000 O.3     1  UNL1       -0.3886
      2 C           3.9860    0.1830    0.0000 C.3     1  UNL1       -0.0323
      3 C           3.9860   -0.8170    0.0000 C.3     1  UNL1       -0.0093
      4 C           3.1200    0.6830    0.0000 C.3     1  UNL1       -0.0354
      5 C           3.1200   -1.3170    0.0000 C.3     1  UNL1        0.0664
      6 C           4.8800    0.7177    0.0000 C.3     1  UNL1       -0.0470
      7 C           4.8800   -1.3516    0.0000 C.3     1  UNL1       -0.0471
      8 C           2.2540    0.1830    0.0000 C.3     1  UNL1       -0.0471
      9 C           2.2540   -0.8170    0.0000 C.3     1  UNL1       -0.0237
     10 C           5.7860    0.2038    0.0000 C.3     1  UNL1       -0.0436
     11 C           5.7860   -0.8378    0.0000 C.3     1  UNL1       -0.0501
     12 C           3.1200    1.6830    0.0000 C.3     1  UNL1       -0.0436
     13 C           3.6200   -2.1830    0.0000 C.3     1  UNL1       -0.0358
     14 C           6.6501    0.7072    0.0000 C.3     1  UNL1       -0.0624
     15 C           2.2540    2.1830    0.0000 C.3     1  UNL1       -0.0624
     16 C           3.9860    2.1830    0.0000 C.3     1  UNL1       -0.0624
     17 H           3.9795    1.0330    0.0000 H       1  UNL1        0.0307
     18 H           3.9795   -1.6670    0.0000 H       1  UNL1        0.0331
     19 H           2.5831    0.9930    0.0000 H       1  UNL1        0.0306
     20 H           5.2736    1.1967    0.0000 H       1  UNL1        0.0271
     21 H           4.4754    1.1875    0.0000 H       1  UNL1        0.0271
     22 H           4.4754   -1.8214    0.0000 H       1  UNL1        0.0269
     23 H           5.2736   -1.8307    0.0000 H       1  UNL1        0.0269
     24 H           2.0419    0.7656    0.0000 H       1  UNL1        0.0269
     25 H           1.6434    0.0754    0.0000 H       1  UNL1        0.0269
     26 H           1.6434   -0.7093    0.0000 H       1  UNL1        0.0293
     27 H           2.0419   -1.3996    0.0000 H       1  UNL1        0.0293
     28 H           5.7824    0.8238    0.0000 H       1  UNL1        0.0298
     29 H           5.9951   -1.4215    0.0000 H       1  UNL1        0.0268
     30 H           6.3969   -0.7317    0.0000 H       1  UNL1        0.0268
     31 H           3.6569    1.3730    0.0000 H       1  UNL1        0.0298
     32 H           3.0831   -2.4930    0.0000 H       1  UNL1        0.0257
     33 H           3.9300   -2.7200    0.0000 H       1  UNL1        0.0257
     34 H           4.1569   -1.8730    0.0000 H       1  UNL1        0.0257
     35 H           6.9622    0.1714    0.0000 H       1  UNL1        0.0232
     36 H           7.1859    1.0192    0.0000 H       1  UNL1        0.0232
     37 H           6.3381    1.2429    0.0000 H       1  UNL1        0.0232
     38 H           2.0000   -2.1830    0.0000 H       1  UNL1        0.2102
     39 H           4.2960    1.6461    0.0000 H       1  UNL1        0.0232
     40 H           4.5230    2.4930    0.0000 H       1  UNL1        0.0232
     41 H           2.5640    2.7200    0.0000 H       1  UNL1        0.0232
     42 H           1.7170    2.4930    0.0000 H       1  UNL1        0.0232
     43 H           3.6760    2.7200    0.0000 H       1  UNL1        0.0232
     44 H           1.9440    1.6461    0.0000 H       1  UNL1        0.0232
@<TRIPOS>BOND
     1     5     1    1
     2     1    38    1
     3     2     3    1
     4     2     4    1
     5     2     6    1
     6     2    17    1
     7     3     5    1
     8     3     7    1
     9     3    18    1
    10     4     8    1
    11     4    12    1
    12     4    19    1
    13     5     9    1
    14     5    13    1
    15     6    10    1
    16     6    20    1
    17     6    21    1
    18     7    11    1
    19     7    22    1
    20     7    23    1
    21     8     9    1
    22     8    24    1
    23     8    25    1
    24     9    26    1
    25     9    27    1
    26    10    11    1
    27    10    14    1
    28    10    28    1
    29    11    29    1
    30    11    30    1
    31    12    15    1
    32    12    16    1
    33    12    31    1
    34    13    32    1
    35    13    33    1
    36    13    34    1
    37    14    35    1
    38    14    36    1
    39    14    37    1
    40    15    41    1
    41    15    42    1
    42    15    44    1
    43    16    39    1
    44    16    40    1
    45    16    43    1
