@<TRIPOS>MOLECULE
IMPHY005570
 50 50 0 0 0
SMALL
GASTEIGER

@<TRIPOS>ATOM
      1 O           8.8712    5.7094    0.0000 O.3     1  UNL1       -0.4806
      2 O           7.1391    5.7094    0.0000 O.2     1  UNL1       -0.2510
      3 C           2.8090   -4.7906    0.0000 C.3     1  UNL1       -0.0226
      4 C           2.8090   -3.7906    0.0000 C.3     1  UNL1       -0.0468
      5 C           2.0000   -5.3784    0.0000 C.3     1  UNL1       -0.0433
      6 C           3.6750   -3.2906    0.0000 C.3     1  UNL1       -0.0525
      7 C           2.3090   -6.3294    0.0000 C.3     1  UNL1       -0.0342
      8 C           3.6750   -2.2906    0.0000 C.3     1  UNL1       -0.0530
      9 C           3.6180   -5.3784    0.0000 C.2     1  UNL1       -0.0848
     10 C           3.3090   -6.3294    0.0000 C.2     1  UNL1       -0.0877
     11 C           4.5411   -1.7906    0.0000 C.3     1  UNL1       -0.0528
     12 C           4.5411   -0.7906    0.0000 C.3     1  UNL1       -0.0496
     13 C           5.4071   -0.2906    0.0000 C.3     1  UNL1       -0.0348
     14 C           5.4071    0.7094    0.0000 C.2     1  UNL1       -0.0879
     15 C           6.2731    2.2094    0.0000 C.3     1  UNL1       -0.0347
     16 C           7.1391    2.7094    0.0000 C.3     1  UNL1       -0.0491
     17 C           6.2731    1.2094    0.0000 C.2     1  UNL1       -0.0879
     18 C           7.1391    3.7094    0.0000 C.3     1  UNL1       -0.0427
     19 C           8.0052    4.2094    0.0000 C.3     1  UNL1        0.0448
     20 C           8.0052    5.2094    0.0000 C.2     1  UNL1        0.3047
     21 H           3.5664   -4.4047    0.0000 H       1  UNL1        0.0343
     22 H           2.5970   -3.2080    0.0000 H       1  UNL1        0.0271
     23 H           2.1984   -3.8982    0.0000 H       1  UNL1        0.0271
     24 H           1.6900   -4.8414    0.0000 H       1  UNL1        0.0274
     25 H           1.4336   -5.6305    0.0000 H       1  UNL1        0.0274
     26 H           3.8871   -3.8732    0.0000 H       1  UNL1        0.0265
     27 H           4.2856   -3.1829    0.0000 H       1  UNL1        0.0265
     28 H           1.7026   -6.4583    0.0000 H       1  UNL1        0.0307
     29 H           2.3738   -6.9460    0.0000 H       1  UNL1        0.0307
     30 H           3.4630   -1.7080    0.0000 H       1  UNL1        0.0265
     31 H           3.0645   -2.3982    0.0000 H       1  UNL1        0.0265
     32 H           4.2077   -5.1868    0.0000 H       1  UNL1        0.0572
     33 H           3.6734   -6.8310    0.0000 H       1  UNL1        0.0569
     34 H           4.7531   -2.3732    0.0000 H       1  UNL1        0.0265
     35 H           5.1516   -1.6829    0.0000 H       1  UNL1        0.0265
     36 H           4.3290   -0.2080    0.0000 H       1  UNL1        0.0268
     37 H           3.9305   -0.8982    0.0000 H       1  UNL1        0.0268
     38 H           5.6192   -0.8732    0.0000 H       1  UNL1        0.0307
     39 H           6.0177   -0.1829    0.0000 H       1  UNL1        0.0307
     40 H           4.8702    1.0194    0.0000 H       1  UNL1        0.0569
     41 H           6.0611    2.7920    0.0000 H       1  UNL1        0.0307
     42 H           5.6625    2.1018    0.0000 H       1  UNL1        0.0307
     43 H           7.3512    2.1268    0.0000 H       1  UNL1        0.0268
     44 H           7.7497    2.8171    0.0000 H       1  UNL1        0.0268
     45 H           6.8100    0.8994    0.0000 H       1  UNL1        0.0569
     46 H           6.9271    4.2920    0.0000 H       1  UNL1        0.0270
     47 H           6.5286    3.6018    0.0000 H       1  UNL1        0.0270
     48 H           8.2172    3.6268    0.0000 H       1  UNL1        0.0377
     49 H           8.6158    4.3171    0.0000 H       1  UNL1        0.0377
     50 H           8.8712    6.3294    0.0000 H       1  UNL1        0.2951
@<TRIPOS>BOND
     1     1    20    1
     2     1    50    1
     3     2    20    2
     4     3     4    1
     5     3     5    1
     6     3     9    1
     7     3    21    1
     8     4     6    1
     9     4    22    1
    10     4    23    1
    11     5     7    1
    12     5    24    1
    13     5    25    1
    14     6     8    1
    15     6    26    1
    16     6    27    1
    17     7    10    1
    18     7    28    1
    19     7    29    1
    20     8    11    1
    21     8    30    1
    22     8    31    1
    23     9    10    2
    24     9    32    1
    25    10    33    1
    26    11    12    1
    27    11    34    1
    28    11    35    1
    29    12    13    1
    30    12    36    1
    31    12    37    1
    32    13    14    1
    33    13    38    1
    34    13    39    1
    35    14    17    2
    36    14    40    1
    37    15    16    1
    38    15    17    1
    39    15    41    1
    40    15    42    1
    41    16    18    1
    42    16    43    1
    43    16    44    1
    44    17    45    1
    45    18    19    1
    46    18    46    1
    47    18    47    1
    48    19    20    1
    49    19    48    1
    50    19    49    1
