@<TRIPOS>MOLECULE
IMPHY007247
 17 18 0 0 0
SMALL
GASTEIGER

@<TRIPOS>ATOM
      1 O           5.5321   -0.0173    0.0000 O.2     1  UNL1       -0.4301
      2 O           4.6660   -1.5173    0.0000 O.2     1  UNL1       -0.2445
      3 C           3.8000    0.9827    0.0000 C.ar    1  UNL1       -0.0082
      4 C           3.8000   -0.0173    0.0000 C.ar    1  UNL1        0.0666
      5 C           2.9061    1.5173    0.0000 C.ar    1  UNL1       -0.0537
      6 C           2.9061   -0.5520    0.0000 C.ar    1  UNL1       -0.0472
      7 C           4.6660    1.4827    0.0000 C.ar    1  UNL1       -0.0187
      8 C           4.6660   -0.5173    0.0000 C.ar    1  UNL1        0.3445
      9 C           2.0000    1.0035    0.0000 C.ar    1  UNL1       -0.0612
     10 C           2.0000   -0.0381    0.0000 C.ar    1  UNL1       -0.0609
     11 C           5.5321    0.9827    0.0000 C.ar    1  UNL1        0.0965
     12 H           2.9132    2.1373    0.0000 H       1  UNL1        0.0624
     13 H           2.9132   -1.1720    0.0000 H       1  UNL1        0.0626
     14 H           4.6660    2.1027    0.0000 H       1  UNL1        0.0654
     15 H           1.4643    1.3156    0.0000 H       1  UNL1        0.0618
     16 H           1.4643   -0.3502    0.0000 H       1  UNL1        0.0618
     17 H           6.0690    1.2927    0.0000 H       1  UNL1        0.1031
@<TRIPOS>BOND
     1     1     8   ar
     2     1    11   ar
     3     2     8    2
     4     3     4   ar
     5     3     5   ar
     6     3     7   ar
     7     4     6   ar
     8     4     8   ar
     9     5     9   ar
    10     5    12    1
    11     6    10   ar
    12     6    13    1
    13     7    11   ar
    14     7    14    1
    15     9    10   ar
    16     9    15    1
    17    10    16    1
    18    11    17    1
