@<TRIPOS>MOLECULE
IMPHY012835
 49 50 0 0 0
SMALL
GASTEIGER

@<TRIPOS>ATOM
      1 O           8.9282    3.2500    0.0000 O.3     1  UNL1       -0.4885
      2 O           8.9282    1.2500    0.0000 O.3     1  UNL1       -0.4913
      3 O           7.1962    4.2500    0.0000 O.3     1  UNL1       -0.4913
      4 O           2.8660   -1.2500    0.0000 O.3     1  UNL1       -0.4942
      5 O           4.5981   -4.2500    0.0000 O.3     1  UNL1       -0.4949
      6 O           6.3301   -1.2500    0.0000 O.3     1  UNL1       -0.5058
      7 O           3.7320    0.2500    0.0000 O.2     1  UNL1       -0.2870
      8 C           6.3301    1.7500    0.0000 C.ar    1  UNL1       -0.0178
      9 C           4.5981   -1.2500    0.0000 C.ar    1  UNL1        0.1047
     10 C           8.0622    2.7500    0.0000 C.ar    1  UNL1        0.2035
     11 C           8.0622    1.7500    0.0000 C.ar    1  UNL1        0.1657
     12 C           7.1962    3.2500    0.0000 C.ar    1  UNL1        0.1657
     13 C           7.1962    1.2500    0.0000 C.ar    1  UNL1       -0.0089
     14 C           6.3301    2.7500    0.0000 C.ar    1  UNL1       -0.0089
     15 C           3.7320   -1.7500    0.0000 C.ar    1  UNL1        0.1379
     16 C           5.4641    1.2500    0.0000 C.2     1  UNL1       -0.0507
     17 C           5.4641   -1.7500    0.0000 C.ar    1  UNL1        0.1346
     18 C           4.5981   -0.2500    0.0000 C.2     1  UNL1        0.1931
     19 C           5.4641    0.2500    0.0000 C.2     1  UNL1       -0.0135
     20 C           3.7320   -2.7500    0.0000 C.ar    1  UNL1        0.0227
     21 C           4.5981   -3.2500    0.0000 C.ar    1  UNL1        0.1271
     22 C           5.4641   -2.7500    0.0000 C.ar    1  UNL1        0.0225
     23 C           8.9282    4.2500    0.0000 C.3     1  UNL1        0.0791
     24 C           9.7942    1.7500    0.0000 C.3     1  UNL1        0.0790
     25 C           6.3301    4.7500    0.0000 C.3     1  UNL1        0.0790
     26 C           2.0000   -1.7500    0.0000 C.3     1  UNL1        0.0788
     27 C           5.4641   -4.7500    0.0000 C.3     1  UNL1        0.0788
     28 H           7.1962    0.6300    0.0000 H       1  UNL1        0.0661
     29 H           5.7932    3.0600    0.0000 H       1  UNL1        0.0661
     30 H           4.9272    1.5600    0.0000 H       1  UNL1        0.0625
     31 H           6.0010   -0.0600    0.0000 H       1  UNL1        0.0656
     32 H           3.1951   -3.0600    0.0000 H       1  UNL1        0.0691
     33 H           6.0010   -3.0600    0.0000 H       1  UNL1        0.0691
     34 H           6.8671   -1.5600    0.0000 H       1  UNL1        0.2922
     35 H           9.5482    4.2500    0.0000 H       1  UNL1        0.0660
     36 H           8.9282    4.8700    0.0000 H       1  UNL1        0.0660
     37 H           8.3082    4.2500    0.0000 H       1  UNL1        0.0660
     38 H          10.1042    1.2131    0.0000 H       1  UNL1        0.0660
     39 H          10.3312    2.0600    0.0000 H       1  UNL1        0.0660
     40 H           9.4842    2.2869    0.0000 H       1  UNL1        0.0660
     41 H           6.6401    5.2869    0.0000 H       1  UNL1        0.0660
     42 H           5.7932    5.0600    0.0000 H       1  UNL1        0.0660
     43 H           6.0201    4.2131    0.0000 H       1  UNL1        0.0660
     44 H           1.6900   -1.2131    0.0000 H       1  UNL1        0.0660
     45 H           1.4631   -2.0600    0.0000 H       1  UNL1        0.0660
     46 H           2.3100   -2.2869    0.0000 H       1  UNL1        0.0660
     47 H           5.1541   -5.2869    0.0000 H       1  UNL1        0.0660
     48 H           6.0010   -5.0600    0.0000 H       1  UNL1        0.0660
     49 H           5.7741   -4.2131    0.0000 H       1  UNL1        0.0660
@<TRIPOS>BOND
     1     1    10    1
     2     1    23    1
     3     2    11    1
     4     2    24    1
     5     3    12    1
     6     3    25    1
     7     4    15    1
     8     4    26    1
     9     5    21    1
    10     5    27    1
    11     6    17    1
    12     6    34    1
    13     7    18    2
    14     8    13   ar
    15     8    14   ar
    16     8    16    1
    17     9    15   ar
    18     9    17   ar
    19     9    18    1
    20    10    11   ar
    21    10    12   ar
    22    11    13   ar
    23    12    14   ar
    24    13    28    1
    25    14    29    1
    26    15    20   ar
    27    16    19    2
    28    16    30    1
    29    17    22   ar
    30    18    19    1
    31    19    31    1
    32    20    21   ar
    33    20    32    1
    34    21    22   ar
    35    22    33    1
    36    23    35    1
    37    23    36    1
    38    23    37    1
    39    24    38    1
    40    24    39    1
    41    24    40    1
    42    25    41    1
    43    25    42    1
    44    25    43    1
    45    26    44    1
    46    26    45    1
    47    26    46    1
    48    27    47    1
    49    27    48    1
    50    27    49    1
