@<TRIPOS>MOLECULE
IMPHY015174
 48 48 0 0 0
SMALL
GASTEIGER

@<TRIPOS>ATOM
      1 O           4.7095   -2.3236    0.0000 O.3     1  UNL1       -0.4646
      2 O           3.3653   -3.0723    0.0000 O.2     1  UNL1       -0.2509
      3 C           5.2095    3.0723    0.0000 C.3     1  UNL1       -0.0531
      4 C           4.2095    3.0723    0.0000 C.3     1  UNL1       -0.0531
      5 C           6.1420    2.7110    0.0000 C.3     1  UNL1       -0.0531
      6 C           3.2770    2.7110    0.0000 C.3     1  UNL1       -0.0531
      7 C           6.8810    2.0374    0.0000 C.3     1  UNL1       -0.0531
      8 C           2.5380    2.0374    0.0000 C.3     1  UNL1       -0.0531
      9 C           7.3267    1.1422    0.0000 C.3     1  UNL1       -0.0531
     10 C           2.0923    1.1422    0.0000 C.3     1  UNL1       -0.0530
     11 C           7.4190    0.1465    0.0000 C.3     1  UNL1       -0.0530
     12 C           2.0000    0.1465    0.0000 C.3     1  UNL1       -0.0526
     13 C           7.1453   -0.8154    0.0000 C.3     1  UNL1       -0.0500
     14 C           2.2737   -0.8154    0.0000 C.3     1  UNL1       -0.0430
     15 C           6.5427   -1.6134    0.0000 C.3     1  UNL1       -0.0185
     16 C           2.8763   -1.6134    0.0000 C.3     1  UNL1        0.0449
     17 C           5.6925   -2.1398    0.0000 C.3     1  UNL1        0.0925
     18 C           3.7265   -2.1398    0.0000 C.2     1  UNL1        0.3071
     19 H           5.6411    3.5174    0.0000 H       1  UNL1        0.0265
     20 H           5.0956    2.4628    0.0000 H       1  UNL1        0.0265
     21 H           4.4512    3.6432    0.0000 H       1  UNL1        0.0265
     22 H           4.3234    2.4628    0.0000 H       1  UNL1        0.0265
     23 H           6.7052    2.9702    0.0000 H       1  UNL1        0.0265
     24 H           5.8156    2.1839    0.0000 H       1  UNL1        0.0265
     25 H           3.2961    3.3308    0.0000 H       1  UNL1        0.0265
     26 H           3.6034    2.1839    0.0000 H       1  UNL1        0.0265
     27 H           7.4998    2.0755    0.0000 H       1  UNL1        0.0265
     28 H           6.3862    1.6637    0.0000 H       1  UNL1        0.0265
     29 H           2.3320    2.6221    0.0000 H       1  UNL1        0.0265
     30 H           3.0328    1.6637    0.0000 H       1  UNL1        0.0265
     31 H           7.9175    0.9542    0.0000 H       1  UNL1        0.0265
     32 H           6.7304    0.9725    0.0000 H       1  UNL1        0.0265
     33 H           1.6889    1.6130    0.0000 H       1  UNL1        0.0265
     34 H           2.6886    0.9725    0.0000 H       1  UNL1        0.0265
     35 H           7.9020   -0.2422    0.0000 H       1  UNL1        0.0265
     36 H           6.8016    0.2037    0.0000 H       1  UNL1        0.0265
     37 H           1.4538    0.4398    0.0000 H       1  UNL1        0.0265
     38 H           2.6174    0.2037    0.0000 H       1  UNL1        0.0265
     39 H           7.4553   -1.3523    0.0000 H       1  UNL1        0.0266
     40 H           6.5903   -0.5390    0.0000 H       1  UNL1        0.0266
     41 H           1.6584   -0.7392    0.0000 H       1  UNL1        0.0270
     42 H           2.8287   -0.5390    0.0000 H       1  UNL1        0.0270
     43 H           6.6378   -2.2260    0.0000 H       1  UNL1        0.0298
     44 H           6.1250   -1.1552    0.0000 H       1  UNL1        0.0298
     45 H           2.2750   -1.7646    0.0000 H       1  UNL1        0.0377
     46 H           3.2940   -1.1552    0.0000 H       1  UNL1        0.0377
     47 H           5.5598   -2.7455    0.0000 H       1  UNL1        0.0697
     48 H           5.4685   -1.5617    0.0000 H       1  UNL1        0.0697
@<TRIPOS>BOND
     1     1    17    1
     2     1    18    1
     3     2    18    2
     4     3     4    1
     5     3     5    1
     6     3    19    1
     7     3    20    1
     8     4     6    1
     9     4    21    1
    10     4    22    1
    11     5     7    1
    12     5    23    1
    13     5    24    1
    14     6     8    1
    15     6    25    1
    16     6    26    1
    17     7     9    1
    18     7    27    1
    19     7    28    1
    20     8    10    1
    21     8    29    1
    22     8    30    1
    23     9    11    1
    24     9    31    1
    25     9    32    1
    26    10    12    1
    27    10    33    1
    28    10    34    1
    29    11    13    1
    30    11    35    1
    31    11    36    1
    32    12    14    1
    33    12    37    1
    34    12    38    1
    35    13    15    1
    36    13    39    1
    37    13    40    1
    38    14    16    1
    39    14    41    1
    40    14    42    1
    41    15    17    1
    42    15    43    1
    43    15    44    1
    44    16    18    1
    45    16    45    1
    46    16    46    1
    47    17    47    1
    48    17    48    1
