@<TRIPOS>MOLECULE
IMPHY015852
 34 34 0 0 0
SMALL
GASTEIGER

@<TRIPOS>ATOM
      1 O           3.7320    0.5000    0.0000 O.3     1  UNL1       -0.4612
      2 O           2.8660   -4.0000    0.0000 O.3     1  UNL1       -0.4951
      3 O           2.0000    0.5000    0.0000 O.2     1  UNL1       -0.2450
      4 C           4.5981    3.0000    0.0000 C.3     1  UNL1       -0.0502
      5 C           4.5981    2.0000    0.0000 C.3     1  UNL1       -0.0185
      6 C           5.4641    3.5000    0.0000 C.3     1  UNL1       -0.0558
      7 C           3.7320    1.5000    0.0000 C.3     1  UNL1        0.0928
      8 C           5.4641    4.5000    0.0000 C.3     1  UNL1       -0.0653
      9 C           2.8660   -1.0000    0.0000 C.ar    1  UNL1        0.0592
     10 C           2.8660    0.0000    0.0000 C.2     1  UNL1        0.3392
     11 C           3.7320   -1.5000    0.0000 C.ar    1  UNL1       -0.0443
     12 C           2.0000   -1.5000    0.0000 C.ar    1  UNL1       -0.0443
     13 C           2.8660   -3.0000    0.0000 C.ar    1  UNL1        0.1201
     14 C           3.7320   -2.5000    0.0000 C.ar    1  UNL1       -0.0192
     15 C           2.0000   -2.5000    0.0000 C.ar    1  UNL1       -0.0192
     16 C           2.0000   -4.5000    0.0000 C.3     1  UNL1        0.0788
     17 H           4.3860    3.5826    0.0000 H       1  UNL1        0.0266
     18 H           3.9875    2.8923    0.0000 H       1  UNL1        0.0266
     19 H           4.8101    1.4174    0.0000 H       1  UNL1        0.0298
     20 H           5.2087    2.1077    0.0000 H       1  UNL1        0.0298
     21 H           5.6762    2.9174    0.0000 H       1  UNL1        0.0263
     22 H           6.0747    3.6077    0.0000 H       1  UNL1        0.0263
     23 H           3.5200    2.0826    0.0000 H       1  UNL1        0.0697
     24 H           3.1215    1.3923    0.0000 H       1  UNL1        0.0697
     25 H           6.0841    4.5000    0.0000 H       1  UNL1        0.0230
     26 H           5.4641    5.1200    0.0000 H       1  UNL1        0.0230
     27 H           4.8441    4.5000    0.0000 H       1  UNL1        0.0230
     28 H           4.2690   -1.1900    0.0000 H       1  UNL1        0.0627
     29 H           1.4631   -1.1900    0.0000 H       1  UNL1        0.0627
     30 H           4.2690   -2.8100    0.0000 H       1  UNL1        0.0654
     31 H           1.4631   -2.8100    0.0000 H       1  UNL1        0.0654
     32 H           1.6900   -3.9631    0.0000 H       1  UNL1        0.0660
     33 H           1.4631   -4.8100    0.0000 H       1  UNL1        0.0660
     34 H           2.3100   -5.0369    0.0000 H       1  UNL1        0.0660
@<TRIPOS>BOND
     1     1     7    1
     2     1    10    1
     3     2    13    1
     4     2    16    1
     5     3    10    2
     6     4     5    1
     7     4     6    1
     8     4    17    1
     9     4    18    1
    10     5     7    1
    11     5    19    1
    12     5    20    1
    13     6     8    1
    14     6    21    1
    15     6    22    1
    16     7    23    1
    17     7    24    1
    18     8    25    1
    19     8    26    1
    20     8    27    1
    21     9    10    1
    22     9    11   ar
    23     9    12   ar
    24    11    14   ar
    25    11    28    1
    26    12    15   ar
    27    12    29    1
    28    13    14   ar
    29    13    15   ar
    30    14    30    1
    31    15    31    1
    32    16    32    1
    33    16    33    1
    34    16    34    1
