@<TRIPOS>MOLECULE
IMPHY003932
 74 80 0 0 0
SMALL
GASTEIGER

@<TRIPOS>ATOM
      1 O           6.4144   -2.6375    0.0000 O.3     1  UNL1       -0.5031
      2 O           4.6660   -1.6029    0.0000 O.2     1  UNL1       -0.4471
      3 O           6.4144    1.4317    0.0000 O.3     1  UNL1       -0.5059
      4 O          13.6262    1.4923    0.0000 O.2     1  UNL1       -0.4471
      5 O          12.6157   -0.2702    0.0000 O.3     1  UNL1       -0.5029
      6 O           4.6660    1.3971    0.0000 O.2     1  UNL1       -0.2863
      7 O          10.6084    3.2694    0.0000 O.3     1  UNL1       -0.5059
      8 O           2.9176   -2.6375    0.0000 O.3     1  UNL1       -0.5033
      9 O          12.1463    4.1019    0.0000 O.2     1  UNL1       -0.2863
     10 O          15.6574    1.4549    0.0000 O.3     1  UNL1       -0.5033
     11 C           9.0641   -1.1304    0.0000 C.3     1  UNL1       -0.0031
     12 C           8.1962   -1.6271    0.0000 C.3     1  UNL1        0.0149
     13 C           9.9282   -1.6337    0.0000 C.3     1  UNL1       -0.0396
     14 C           9.9243   -2.6337    0.0000 C.3     1  UNL1       -0.0312
     15 C           8.1923   -2.6270    0.0000 C.2     1  UNL1       -0.0767
     16 C           8.5674   -0.2624    0.0000 C.3     1  UNL1       -0.0552
     17 C           9.0564   -3.1304    0.0000 C.2     1  UNL1       -0.0759
     18 C           7.3321   -1.1237    0.0000 C.ar    1  UNL1        0.0088
     19 C           9.5674   -0.2663    0.0000 C.2     1  UNL1       -0.0765
     20 C           6.4260   -1.6376    0.0000 C.ar    1  UNL1        0.1639
     21 C           9.0525   -4.1304    0.0000 C.3     1  UNL1       -0.0438
     22 C           7.3321   -0.0821    0.0000 C.ar    1  UNL1       -0.0120
     23 C          10.5674   -0.2702    0.0000 C.2     1  UNL1       -0.0543
     24 C           5.5321   -1.1029    0.0000 C.ar    1  UNL1        0.1844
     25 C           6.4260    0.4318    0.0000 C.ar    1  UNL1        0.1317
     26 C           5.5321   -0.1029    0.0000 C.ar    1  UNL1        0.1095
     27 C          11.0708    0.5939    0.0000 C.ar    1  UNL1        0.0233
     28 C           4.6660    0.3971    0.0000 C.ar    1  UNL1        0.2040
     29 C          12.1124    0.5939    0.0000 C.ar    1  UNL1        0.1673
     30 C          10.5569    1.5000    0.0000 C.ar    1  UNL1       -0.0086
     31 C           3.8000   -0.1029    0.0000 C.ar    1  UNL1        0.0684
     32 C           3.8000   -1.1029    0.0000 C.ar    1  UNL1        0.1806
     33 C          12.6262    1.5000    0.0000 C.ar    1  UNL1        0.1847
     34 C          11.0916    2.3939    0.0000 C.ar    1  UNL1        0.1320
     35 C          12.1329    2.3699    0.0000 C.ar    1  UNL1        0.1095
     36 C           2.9061   -1.6376    0.0000 C.ar    1  UNL1        0.1598
     37 C           2.9061    0.4318    0.0000 C.ar    1  UNL1       -0.0471
     38 C          12.6396    3.2320    0.0000 C.ar    1  UNL1        0.2040
     39 C          13.6396    3.2243    0.0000 C.ar    1  UNL1        0.0684
     40 C           2.0000   -1.1237    0.0000 C.ar    1  UNL1       -0.0165
     41 C           2.0000   -0.0821    0.0000 C.ar    1  UNL1       -0.0574
     42 C          14.1329    2.3544    0.0000 C.ar    1  UNL1        0.1806
     43 C          15.1742    2.3304    0.0000 C.ar    1  UNL1        0.1598
     44 C          14.1534    4.1304    0.0000 C.ar    1  UNL1       -0.0471
     45 C          15.7089    3.2243    0.0000 C.ar    1  UNL1       -0.0165
     46 C          15.1950    4.1304    0.0000 C.ar    1  UNL1       -0.0574
     47 H           8.1994   -0.7771    0.0000 H       1  UNL1        0.0401
     48 H          10.5384   -1.7437    0.0000 H       1  UNL1        0.0277
     49 H          10.1425   -1.0519    0.0000 H       1  UNL1        0.0277
     50 H          10.1341   -3.2171    0.0000 H       1  UNL1        0.0310
     51 H          10.5353   -2.5284    0.0000 H       1  UNL1        0.0310
     52 H           7.6542   -2.9350    0.0000 H       1  UNL1        0.0578
     53 H           9.1056    0.0455    0.0000 H       1  UNL1        0.0238
     54 H           8.2595    0.2757    0.0000 H       1  UNL1        0.0238
     55 H           8.0293   -0.5704    0.0000 H       1  UNL1        0.0238
     56 H           9.2595    0.2718    0.0000 H       1  UNL1        0.0578
     57 H           8.4326   -4.1280    0.0000 H       1  UNL1        0.0274
     58 H           9.0502   -4.7504    0.0000 H       1  UNL1        0.0274
     59 H           9.6725   -4.1328    0.0000 H       1  UNL1        0.0274
     60 H           7.8678    0.2300    0.0000 H       1  UNL1        0.0658
     61 H          10.8754   -0.8083    0.0000 H       1  UNL1        0.0622
     62 H           5.8740   -2.9413    0.0000 H       1  UNL1        0.2923
     63 H           9.9370    1.5072    0.0000 H       1  UNL1        0.0661
     64 H           6.9478    1.7479    0.0000 H       1  UNL1        0.2922
     65 H           2.9132    1.0517    0.0000 H       1  UNL1        0.0626
     66 H          13.2357   -0.2678    0.0000 H       1  UNL1        0.2923
     67 H           1.4643   -1.4358    0.0000 H       1  UNL1        0.0655
     68 H           1.4643    0.2300    0.0000 H       1  UNL1        0.0619
     69 H           9.9885    3.2814    0.0000 H       1  UNL1        0.2922
     70 H          13.8413    4.6661    0.0000 H       1  UNL1        0.0626
     71 H           2.3843   -2.9537    0.0000 H       1  UNL1        0.2923
     72 H          16.3288    3.2171    0.0000 H       1  UNL1        0.0655
     73 H          15.5071    4.6661    0.0000 H       1  UNL1        0.0619
     74 H          16.2773    1.4429    0.0000 H       1  UNL1        0.2923
@<TRIPOS>BOND
     1     1    20    1
     2     1    62    1
     3     2    24   ar
     4     2    32   ar
     5     3    25    1
     6     3    64    1
     7     4    33   ar
     8     4    42   ar
     9     5    29    1
    10     5    66    1
    11     6    28    2
    12     7    34    1
    13     7    69    1
    14     8    36    1
    15     8    71    1
    16     9    38    2
    17    10    43    1
    18    10    74    1
    19    11    12    1
    20    11    13    1
    21    11    16    1
    22    11    19    1
    23    12    15    1
    24    12    18    1
    25    12    47    1
    26    13    14    1
    27    13    48    1
    28    13    49    1
    29    14    17    1
    30    14    50    1
    31    14    51    1
    32    15    17    2
    33    15    52    1
    34    16    53    1
    35    16    54    1
    36    16    55    1
    37    17    21    1
    38    18    20   ar
    39    18    22   ar
    40    19    23    2
    41    19    56    1
    42    20    24   ar
    43    21    57    1
    44    21    58    1
    45    21    59    1
    46    22    25   ar
    47    22    60    1
    48    23    27    1
    49    23    61    1
    50    24    26   ar
    51    25    26   ar
    52    26    28   ar
    53    27    29   ar
    54    27    30   ar
    55    28    31   ar
    56    29    33   ar
    57    30    34   ar
    58    30    63    1
    59    31    32   ar
    60    31    37   ar
    61    32    36   ar
    62    33    35   ar
    63    34    35   ar
    64    35    38   ar
    65    36    40   ar
    66    37    41   ar
    67    37    65    1
    68    38    39   ar
    69    39    42   ar
    70    39    44   ar
    71    40    41   ar
    72    40    67    1
    73    41    68    1
    74    42    43   ar
    75    43    45   ar
    76    44    46   ar
    77    44    70    1
    78    45    46   ar
    79    45    72    1
    80    46    73    1
