@<TRIPOS>MOLECULE
IMPHY001071
 55 57 0 0 0
SMALL
GASTEIGER

@<TRIPOS>ATOM
      1 O           7.9497   -0.3927    0.0000 O.3     1  UNL1       -0.3312
      2 O           4.4381    0.7005    0.0000 O.3     1  UNL1       -0.3457
      3 O           6.2177    0.6073    0.0000 O.3     1  UNL1       -0.3460
      4 O           4.4769    3.2879    0.0000 O.3     1  UNL1       -0.3812
      5 O           5.9903    2.7709    0.0000 O.3     1  UNL1       -0.3837
      6 O           6.2177   -2.3927    0.0000 O.3     1  UNL1       -0.3865
      7 O           7.9497   -3.3927    0.0000 O.3     1  UNL1       -0.3864
      8 O           9.6818   -2.3927    0.0000 O.3     1  UNL1       -0.3829
      9 O           9.6818   -0.3927    0.0000 O.3     1  UNL1       -0.4287
     10 O           2.5369    2.3097    0.0000 O.3     1  UNL1       -0.3920
     11 O           8.8158    1.1073    0.0000 O.2     1  UNL1       -0.2449
     12 O          13.1459    0.6073    0.0000 O.3     1  UNL1       -0.5033
     13 O          13.1459    2.6073    0.0000 O.3     1  UNL1       -0.5033
     14 C           4.2690    2.3097    0.0000 C.3     1  UNL1        0.1425
     15 C           7.0837   -0.8927    0.0000 C.3     1  UNL1        0.1144
     16 C           5.2471    2.1018    0.0000 C.3     1  UNL1        0.1387
     17 C           7.0837   -1.8927    0.0000 C.3     1  UNL1        0.1120
     18 C           5.3517    1.1073    0.0000 C.3     1  UNL1        0.1880
     19 C           7.9497   -2.3927    0.0000 C.3     1  UNL1        0.1152
     20 C           8.8158   -1.8927    0.0000 C.3     1  UNL1        0.1455
     21 C           3.7690    1.4437    0.0000 C.3     1  UNL1        0.0843
     22 C           6.2177   -0.3927    0.0000 C.3     1  UNL1        0.0796
     23 C           8.8158   -0.8927    0.0000 C.3     1  UNL1        0.2341
     24 C           3.4030    2.8097    0.0000 C.3     1  UNL1        0.0778
     25 C           9.6818    0.6073    0.0000 C.2     1  UNL1        0.3416
     26 C          10.5478    1.1073    0.0000 C.ar    1  UNL1        0.0627
     27 C          11.4138    0.6073    0.0000 C.ar    1  UNL1       -0.0026
     28 C          10.5478    2.1073    0.0000 C.ar    1  UNL1       -0.0441
     29 C          12.2799    1.1073    0.0000 C.ar    1  UNL1        0.1590
     30 C          11.4138    2.6073    0.0000 C.ar    1  UNL1       -0.0158
     31 C          12.2799    2.1073    0.0000 C.ar    1  UNL1        0.1583
     32 H           7.0837   -0.2727    0.0000 H       1  UNL1        0.0647
     33 H           5.0867    2.7007    0.0000 H       1  UNL1        0.0675
     34 H           6.5468   -1.5827    0.0000 H       1  UNL1        0.0647
     35 H           5.3192    0.4881    0.0000 H       1  UNL1        0.0937
     36 H           7.4128   -2.7027    0.0000 H       1  UNL1        0.0648
     37 H           9.3527   -1.5827    0.0000 H       1  UNL1        0.0683
     38 H           3.2674    1.8081    0.0000 H       1  UNL1        0.0591
     39 H           3.3541    0.9829    0.0000 H       1  UNL1        0.0591
     40 H           5.6071   -0.2851    0.0000 H       1  UNL1        0.0587
     41 H           6.0056   -0.9753    0.0000 H       1  UNL1        0.0587
     42 H           8.8158   -0.2727    0.0000 H       1  UNL1        0.1085
     43 H           3.8015    3.2847    0.0000 H       1  UNL1        0.0587
     44 H           3.0044    3.2847    0.0000 H       1  UNL1        0.0587
     45 H           4.0162    3.7027    0.0000 H       1  UNL1        0.2105
     46 H           6.5799    2.5793    0.0000 H       1  UNL1        0.2101
     47 H           5.6808   -2.0827    0.0000 H       1  UNL1        0.2100
     48 H           7.4128   -3.7027    0.0000 H       1  UNL1        0.2100
     49 H          10.2187   -2.0827    0.0000 H       1  UNL1        0.2102
     50 H           2.0000    2.6197    0.0000 H       1  UNL1        0.2095
     51 H          11.4138   -0.0127    0.0000 H       1  UNL1        0.0663
     52 H          10.0109    2.4173    0.0000 H       1  UNL1        0.0627
     53 H          11.4138    3.2273    0.0000 H       1  UNL1        0.0655
     54 H          13.6828    0.9173    0.0000 H       1  UNL1        0.2923
     55 H          13.1459    3.2273    0.0000 H       1  UNL1        0.2923
@<TRIPOS>BOND
     1     1    15    1
     2     1    23    1
     3     2    18    1
     4     2    21    1
     5    18     3    1
     6     3    22    1
     7    14     4    1
     8     4    45    1
     9    16     5    1
    10     5    46    1
    11    17     6    1
    12     6    47    1
    13    19     7    1
    14     7    48    1
    15    20     8    1
    16     8    49    1
    17    23     9    1
    18     9    25    1
    19    10    24    1
    20    10    50    1
    21    11    25    2
    22    12    29    1
    23    12    54    1
    24    13    31    1
    25    13    55    1
    26    14    16    1
    27    14    21    1
    28    14    24    1
    29    15    17    1
    30    15    22    1
    31    15    32    1
    32    16    18    1
    33    16    33    1
    34    17    19    1
    35    17    34    1
    36    18    35    1
    37    19    20    1
    38    19    36    1
    39    20    23    1
    40    20    37    1
    41    21    38    1
    42    21    39    1
    43    22    40    1
    44    22    41    1
    45    23    42    1
    46    24    43    1
    47    24    44    1
    48    25    26    1
    49    26    27   ar
    50    26    28   ar
    51    27    29   ar
    52    27    51    1
    53    28    30   ar
    54    28    52    1
    55    29    31   ar
    56    30    31   ar
    57    30    53    1
