@<TRIPOS>MOLECULE
IMPHY016586
 21 21 0 0 0
SMALL
GASTEIGER

@<TRIPOS>ATOM
      1 C           2.7818   -1.1235    0.0000 C.3     1  UNL1       -0.0531
      2 C           2.0000   -0.5000    0.0000 C.3     1  UNL1       -0.0531
      3 C           3.7568   -0.9010    0.0000 C.3     1  UNL1       -0.0531
      4 C           2.0000    0.5000    0.0000 C.3     1  UNL1       -0.0531
      5 C           4.1906   -0.0000    0.0000 C.3     1  UNL1       -0.0531
      6 C           2.7818    1.1235    0.0000 C.3     1  UNL1       -0.0531
      7 C           3.7568    0.9010    0.0000 C.3     1  UNL1       -0.0531
      8 H           2.2971   -1.5100    0.0000 H       1  UNL1        0.0265
      9 H           3.0508   -1.6821    0.0000 H       1  UNL1        0.0265
     10 H           1.3955   -0.3620    0.0000 H       1  UNL1        0.0265
     11 H           1.7310   -1.0586    0.0000 H       1  UNL1        0.0265
     12 H           3.7568   -1.5210    0.0000 H       1  UNL1        0.0265
     13 H           4.3612   -1.0389    0.0000 H       1  UNL1        0.0265
     14 H           1.7310    1.0586    0.0000 H       1  UNL1        0.0265
     15 H           1.3955    0.3620    0.0000 H       1  UNL1        0.0265
     16 H           4.6754   -0.3866    0.0000 H       1  UNL1        0.0265
     17 H           4.6754    0.3866    0.0000 H       1  UNL1        0.0265
     18 H           3.0508    1.6821    0.0000 H       1  UNL1        0.0265
     19 H           2.2971    1.5100    0.0000 H       1  UNL1        0.0265
     20 H           4.3612    1.0389    0.0000 H       1  UNL1        0.0265
     21 H           3.7568    1.5210    0.0000 H       1  UNL1        0.0265
@<TRIPOS>BOND
     1     1     2    1
     2     1     3    1
     3     1     8    1
     4     1     9    1
     5     2     4    1
     6     2    10    1
     7     2    11    1
     8     3     5    1
     9     3    12    1
    10     3    13    1
    11     4     6    1
    12     4    14    1
    13     4    15    1
    14     5     7    1
    15     5    16    1
    16     5    17    1
    17     6     7    1
    18     6    18    1
    19     6    19    1
    20     7    20    1
    21     7    21    1
