@<TRIPOS>MOLECULE
IMPHY017446
 37 38 0 0 0
SMALL
GASTEIGER

@<TRIPOS>ATOM
      1 O           5.4920   -1.2177    0.0000 O.3     1  UNL1       -0.3700
      2 O           2.0000   -1.1830    0.0000 O.2     1  UNL1       -0.2973
      3 C           4.5981    0.3170    0.0000 C.3     1  UNL1       -0.0061
      4 C           4.5981   -0.6830    0.0000 C.3     1  UNL1        0.0770
      5 C           3.7320    0.8170    0.0000 C.3     1  UNL1       -0.0228
      6 C           5.4920    0.8516    0.0000 C.3     1  UNL1       -0.0448
      7 C           3.7320   -1.1830    0.0000 C.3     1  UNL1        0.0350
      8 C           2.8660    0.3170    0.0000 C.3     1  UNL1        0.0114
      9 C           6.3981    0.3378    0.0000 C.3     1  UNL1       -0.0265
     10 C           6.3981   -0.7038    0.0000 C.3     1  UNL1        0.0566
     11 C           2.8660   -0.6830    0.0000 C.2     1  UNL1        0.1366
     12 C           4.5981   -1.6830    0.0000 C.3     1  UNL1       -0.0351
     13 C           3.2320    1.6830    0.0000 C.3     1  UNL1       -0.0591
     14 C           4.2320    1.6830    0.0000 C.3     1  UNL1       -0.0591
     15 C           7.2622   -1.2072    0.0000 C.3     1  UNL1       -0.0387
     16 H           4.5933    0.9370    0.0000 H       1  UNL1        0.0334
     17 H           5.8856    1.3307    0.0000 H       1  UNL1        0.0270
     18 H           5.0874    1.3214    0.0000 H       1  UNL1        0.0270
     19 H           3.3335   -1.6580    0.0000 H       1  UNL1        0.0370
     20 H           4.1306   -1.6580    0.0000 H       1  UNL1        0.0370
     21 H           2.6540    0.8996    0.0000 H       1  UNL1        0.0347
     22 H           2.2554    0.2093    0.0000 H       1  UNL1        0.0347
     23 H           7.0089    0.2317    0.0000 H       1  UNL1        0.0290
     24 H           6.6071    0.9215    0.0000 H       1  UNL1        0.0290
     25 H           6.3945   -1.3238    0.0000 H       1  UNL1        0.0593
     26 H           3.9781   -1.6830    0.0000 H       1  UNL1        0.0257
     27 H           4.5981   -2.3030    0.0000 H       1  UNL1        0.0257
     28 H           5.2181   -1.6830    0.0000 H       1  UNL1        0.0257
     29 H           3.7690    1.9930    0.0000 H       1  UNL1        0.0235
     30 H           2.9220    2.2200    0.0000 H       1  UNL1        0.0235
     31 H           2.6951    1.3730    0.0000 H       1  UNL1        0.0235
     32 H           4.7690    1.3730    0.0000 H       1  UNL1        0.0235
     33 H           4.5420    2.2200    0.0000 H       1  UNL1        0.0235
     34 H           3.6951    1.9930    0.0000 H       1  UNL1        0.0235
     35 H           6.9501   -1.7429    0.0000 H       1  UNL1        0.0254
     36 H           7.7979   -1.5192    0.0000 H       1  UNL1        0.0254
     37 H           7.5742   -0.6714    0.0000 H       1  UNL1        0.0254
@<TRIPOS>BOND
     1     1     4    1
     2     1    10    1
     3     2    11    2
     4     3     4    1
     5     3     5    1
     6     3     6    1
     7     3    16    1
     8     4     7    1
     9     4    12    1
    10     5     8    1
    11     5    13    1
    12     5    14    1
    13     6     9    1
    14     6    17    1
    15     6    18    1
    16     7    11    1
    17     7    19    1
    18     7    20    1
    19     8    11    1
    20     8    21    1
    21     8    22    1
    22     9    10    1
    23     9    23    1
    24     9    24    1
    25    10    15    1
    26    10    25    1
    27    12    26    1
    28    12    27    1
    29    12    28    1
    30    13    29    1
    31    13    30    1
    32    13    31    1
    33    14    32    1
    34    14    33    1
    35    14    34    1
    36    15    35    1
    37    15    36    1
    38    15    37    1
