@<TRIPOS>MOLECULE
IMPHY002424
 58 60 0 0 0
SMALL
GASTEIGER

@<TRIPOS>ATOM
      1 CL         12.7994    1.9177    0.0000 Cl      1  UNL1       -0.1251
      2 O           6.0010    0.0357    0.0000 O.3     1  UNL1       -0.3477
      3 O           4.2690    0.0357    0.0000 O.3     1  UNL1       -0.3405
      4 O           6.0010   -1.9643    0.0000 O.3     1  UNL1       -0.3841
      5 O           4.2690   -2.9643    0.0000 O.3     1  UNL1       -0.3864
      6 O           7.3220    3.2528    0.0000 O.2     1  UNL1       -0.2914
      7 O           2.5369   -1.9643    0.0000 O.3     1  UNL1       -0.3865
      8 O           2.5369    1.0357    0.0000 O.3     1  UNL1       -0.3924
      9 C           6.8671    1.5357    0.0000 C.3     1  UNL1        0.0581
     10 C           7.3634    0.6744    0.0000 C.3     1  UNL1       -0.0124
     11 C           6.0010    1.0357    0.0000 C.3     1  UNL1        0.0635
     12 C           8.3362    0.8785    0.0000 C.ar    1  UNL1       -0.0354
     13 C           7.5316    2.2750    0.0000 C.2     1  UNL1        0.1720
     14 C           8.4408    1.8730    0.0000 C.ar    1  UNL1        0.0244
     15 C           5.1350   -0.4643    0.0000 C.3     1  UNL1        0.1879
     16 C           5.1350   -1.4643    0.0000 C.3     1  UNL1        0.1341
     17 C           4.2690   -1.9643    0.0000 C.3     1  UNL1        0.1141
     18 C           6.1239    2.2048    0.0000 C.3     1  UNL1       -0.0500
     19 C           3.4030   -1.4643    0.0000 C.3     1  UNL1        0.1119
     20 C           3.4030   -0.4643    0.0000 C.3     1  UNL1        0.1130
     21 C           9.3543    2.2798    0.0000 C.ar    1  UNL1       -0.0362
     22 C           9.1453    0.2907    0.0000 C.ar    1  UNL1       -0.0547
     23 C          10.1633    1.6920    0.0000 C.ar    1  UNL1       -0.0398
     24 C          10.0588    0.6975    0.0000 C.ar    1  UNL1       -0.0467
     25 C           2.5369    0.0357    0.0000 C.3     1  UNL1        0.0730
     26 C           9.4588    3.2743    0.0000 C.3     1  UNL1       -0.0388
     27 C          11.0769    2.0987    0.0000 C.3     1  UNL1       -0.0137
     28 C          10.8678    0.1097    0.0000 C.3     1  UNL1       -0.0394
     29 C          11.8859    1.5110    0.0000 C.3     1  UNL1        0.0266
     30 H           6.7966    0.4230    0.0000 H       1  UNL1        0.0324
     31 H           7.5538    0.0843    0.0000 H       1  UNL1        0.0324
     32 H           5.7890    1.6183    0.0000 H       1  UNL1        0.0571
     33 H           5.3905    0.9280    0.0000 H       1  UNL1        0.0571
     34 H           5.1350    0.1557    0.0000 H       1  UNL1        0.0937
     35 H           5.1350   -2.0843    0.0000 H       1  UNL1        0.0671
     36 H           3.7320   -2.2743    0.0000 H       1  UNL1        0.0648
     37 H           6.5388    2.6656    0.0000 H       1  UNL1        0.0240
     38 H           5.6632    2.6197    0.0000 H       1  UNL1        0.0240
     39 H           5.7091    1.7441    0.0000 H       1  UNL1        0.0240
     40 H           2.8660   -1.1543    0.0000 H       1  UNL1        0.0647
     41 H           3.4030    0.1557    0.0000 H       1  UNL1        0.0647
     42 H           9.0805   -0.3259    0.0000 H       1  UNL1        0.0623
     43 H           1.9264    0.1434    0.0000 H       1  UNL1        0.0584
     44 H           2.3249   -0.5469    0.0000 H       1  UNL1        0.0584
     45 H          10.0755    3.2095    0.0000 H       1  UNL1        0.0278
     46 H           9.5237    3.8909    0.0000 H       1  UNL1        0.0278
     47 H           8.8422    3.3391    0.0000 H       1  UNL1        0.0278
     48 H          11.5229    2.5294    0.0000 H       1  UNL1        0.0325
     49 H          10.7302    2.6127    0.0000 H       1  UNL1        0.0325
     50 H           6.5380   -1.6543    0.0000 H       1  UNL1        0.2101
     51 H           3.7320   -3.2743    0.0000 H       1  UNL1        0.2100
     52 H           2.0000   -1.6543    0.0000 H       1  UNL1        0.2100
     53 H          10.5034   -0.3919    0.0000 H       1  UNL1        0.0278
     54 H          11.3694   -0.2547    0.0000 H       1  UNL1        0.0278
     55 H          11.2323    0.6113    0.0000 H       1  UNL1        0.0278
     56 H          11.4399    1.0803    0.0000 H       1  UNL1        0.0433
     57 H          12.2326    0.9969    0.0000 H       1  UNL1        0.0433
     58 H           2.0000    1.3457    0.0000 H       1  UNL1        0.2095
@<TRIPOS>BOND
     1     1    29    1
     2     2    11    1
     3    15     2    1
     4     3    15    1
     5     3    20    1
     6    16     4    1
     7     4    50    1
     8    17     5    1
     9     5    51    1
    10     6    13    2
    11    19     7    1
    12     7    52    1
    13     8    25    1
    14     8    58    1
    15     9    10    1
    16     9    11    1
    17     9    13    1
    18     9    18    1
    19    10    12    1
    20    10    30    1
    21    10    31    1
    22    11    32    1
    23    11    33    1
    24    12    14   ar
    25    12    22   ar
    26    13    14    1
    27    14    21   ar
    28    15    16    1
    29    15    34    1
    30    16    17    1
    31    16    35    1
    32    17    19    1
    33    17    36    1
    34    18    37    1
    35    18    38    1
    36    18    39    1
    37    19    20    1
    38    19    40    1
    39    20    25    1
    40    20    41    1
    41    21    23   ar
    42    21    26    1
    43    22    24   ar
    44    22    42    1
    45    23    24   ar
    46    23    27    1
    47    24    28    1
    48    25    43    1
    49    25    44    1
    50    26    45    1
    51    26    46    1
    52    26    47    1
    53    27    29    1
    54    27    48    1
    55    27    49    1
    56    28    53    1
    57    28    54    1
    58    28    55    1
    59    29    56    1
    60    29    57    1
