@<TRIPOS>MOLECULE
IMPHY008594
 52 55 0 0 0
SMALL
GASTEIGER

@<TRIPOS>ATOM
      1 O           4.2690   -1.6796    0.0000 O.3     1  UNL1       -0.3339
      2 O           6.0010   -1.6796    0.0000 O.3     1  UNL1       -0.4606
      3 O           4.2690   -4.6796    0.0000 O.3     1  UNL1       -0.3864
      4 O           2.5369   -3.6796    0.0000 O.3     1  UNL1       -0.3866
      5 O           6.0010   -3.6796    0.0000 O.3     1  UNL1       -0.3829
      6 O           7.7570    1.3829    0.0000 O.3     1  UNL1       -0.4828
      7 O           4.2548    1.3996    0.0000 O.3     1  UNL1       -0.5058
      8 O           5.1647    2.8930    0.0000 O.2     1  UNL1       -0.2917
      9 O          11.2326    4.3696    0.0000 O.3     1  UNL1       -0.5068
     10 C           4.2690   -3.6796    0.0000 C.3     1  UNL1        0.1151
     11 C           3.4030   -3.1796    0.0000 C.3     1  UNL1        0.1096
     12 C           5.1350   -3.1796    0.0000 C.3     1  UNL1        0.1454
     13 C           3.4030   -2.1796    0.0000 C.3     1  UNL1        0.0883
     14 C           5.1350   -2.1796    0.0000 C.3     1  UNL1        0.2307
     15 C           2.5369   -1.6796    0.0000 C.3     1  UNL1       -0.0360
     16 C           6.0010   -0.6796    0.0000 C.ar    1  UNL1        0.1310
     17 C           7.7609    2.3829    0.0000 C.3     1  UNL1        0.1322
     18 C           6.8968    2.8863    0.0000 C.3     1  UNL1        0.0520
     19 C           6.8891    0.8863    0.0000 C.ar    1  UNL1        0.1389
     20 C           6.0250    1.3896    0.0000 C.ar    1  UNL1        0.1007
     21 C           6.9011   -0.1553    0.0000 C.ar    1  UNL1        0.0229
     22 C           6.0288    2.3896    0.0000 C.2     1  UNL1        0.1740
     23 C           5.1010   -0.1553    0.0000 C.ar    1  UNL1        0.0226
     24 C           5.1130    0.8863    0.0000 C.ar    1  UNL1        0.1343
     25 C           8.6288    2.8796    0.0000 C.ar    1  UNL1       -0.0067
     26 C           9.4929    2.3763    0.0000 C.ar    1  UNL1       -0.0516
     27 C           8.6327    3.8796    0.0000 C.ar    1  UNL1       -0.0516
     28 C          10.3608    2.8729    0.0000 C.ar    1  UNL1       -0.0198
     29 C           9.5006    4.3762    0.0000 C.ar    1  UNL1       -0.0198
     30 C          10.3647    3.8729    0.0000 C.ar    1  UNL1        0.1169
     31 H           4.8059   -3.9896    0.0000 H       1  UNL1        0.0648
     32 H           3.4030   -3.7996    0.0000 H       1  UNL1        0.0646
     33 H           5.6720   -2.8696    0.0000 H       1  UNL1        0.0683
     34 H           3.4030   -1.5596    0.0000 H       1  UNL1        0.0621
     35 H           5.1350   -1.5596    0.0000 H       1  UNL1        0.1084
     36 H           2.8469   -1.1426    0.0000 H       1  UNL1        0.0255
     37 H           2.0000   -1.3696    0.0000 H       1  UNL1        0.0255
     38 H           2.2269   -2.2165    0.0000 H       1  UNL1        0.0255
     39 H           3.7320   -4.9896    0.0000 H       1  UNL1        0.2100
     40 H           2.0000   -3.3696    0.0000 H       1  UNL1        0.2100
     41 H           6.0010   -4.2996    0.0000 H       1  UNL1        0.2102
     42 H           7.7632    3.0029    0.0000 H       1  UNL1        0.0789
     43 H           7.2971    3.3597    0.0000 H       1  UNL1        0.0385
     44 H           6.5001    3.3628    0.0000 H       1  UNL1        0.0385
     45 H           7.4404   -0.4611    0.0000 H       1  UNL1        0.0691
     46 H           4.5617   -0.4611    0.0000 H       1  UNL1        0.0691
     47 H           9.4905    1.7563    0.0000 H       1  UNL1        0.0623
     48 H           8.0969    4.1916    0.0000 H       1  UNL1        0.0623
     49 H          10.8966    2.5608    0.0000 H       1  UNL1        0.0654
     50 H           9.5030    4.9962    0.0000 H       1  UNL1        0.0654
     51 H           3.7132    1.0979    0.0000 H       1  UNL1        0.2922
     52 H          11.2350    4.9896    0.0000 H       1  UNL1        0.2921
@<TRIPOS>BOND
     1     1    13    1
     2     1    14    1
     3    14     2    1
     4     2    16    1
     5    10     3    1
     6     3    39    1
     7    11     4    1
     8     4    40    1
     9     5    12    1
    10     5    41    1
    11     6    17    1
    12     6    19    1
    13     7    24    1
    14     7    51    1
    15     8    22    2
    16     9    30    1
    17     9    52    1
    18    10    11    1
    19    10    12    1
    20    10    31    1
    21    11    13    1
    22    11    32    1
    23    12    14    1
    24    12    33    1
    25    13    15    1
    26    13    34    1
    27    14    35    1
    28    15    36    1
    29    15    37    1
    30    15    38    1
    31    16    21   ar
    32    16    23   ar
    33    17    18    1
    34    17    25    1
    35    17    42    1
    36    18    22    1
    37    18    43    1
    38    18    44    1
    39    19    20   ar
    40    19    21   ar
    41    20    22    1
    42    20    24   ar
    43    21    45    1
    44    23    24   ar
    45    23    46    1
    46    25    26   ar
    47    25    27   ar
    48    26    28   ar
    49    26    47    1
    50    27    29   ar
    51    27    48    1
    52    28    30   ar
    53    28    49    1
    54    29    30   ar
    55    29    50    1
