@<TRIPOS>MOLECULE
IMPHY000080
 55 57 0 0 0
SMALL
GASTEIGER

@<TRIPOS>ATOM
      1 O           4.2690   -0.2598    0.0000 O.2     1  UNL1       -0.2637
      2 O          12.1196    1.2810    0.0000 O.2     1  UNL1       -0.2702
      3 O          15.5875    0.2944    0.0000 O.3     1  UNL1       -0.4793
      4 OXT        14.7273   -1.2089    0.0000 O.2     1  UNL1       -0.2489
      5 OE1        15.5759    3.2944    0.0000 O.3     1  UNL1       -0.4806
      6 OE2        13.8439    3.2877    0.0000 O.2     1  UNL1       -0.2510
      7 N           6.0290   -1.2251    0.0000 N.pl3   1  UNL1       -0.3311
      8 N           6.0290   -3.2944    0.0000 N.pl3   1  UNL1       -0.3271
      9 N           8.6671   -1.7323    0.0000 N.pl3   1  UNL1       -0.3420
     10 N           4.2690   -3.2598    0.0000 N.ar    1  UNL1       -0.3147
     11 N           3.4030   -1.7598    0.0000 N.ar    1  UNL1       -0.1759
     12 N          12.9914   -0.2156    0.0000 N.am    1  UNL1       -0.2983
     13 N           2.5369   -3.2598    0.0000 N.pl3   1  UNL1       -0.3289
     14 C           6.9350   -1.7390    0.0000 C.3     1  UNL1        0.0517
     15 C           6.9350   -2.7806    0.0000 C.3     1  UNL1        0.0302
     16 C           7.7991   -1.2356    0.0000 C.3     1  UNL1        0.0289
     17 C           5.1350   -1.7598    0.0000 C.ar    1  UNL1        0.1330
     18 C           5.1350   -2.7598    0.0000 C.ar    1  UNL1        0.1255
     19 C           9.5312   -1.2289    0.0000 C.ar    1  UNL1        0.0272
     20 C           4.2690   -1.2598    0.0000 C.ar    1  UNL1        0.2973
     21 C           3.4030   -2.7598    0.0000 C.ar    1  UNL1        0.1951
     22 CA         13.8555    0.2877    0.0000 C.3     1  UNL1        0.1209
     23 CB         13.8516    1.2877    0.0000 C.3     1  UNL1       -0.0140
     24 C          10.3991   -1.7256    0.0000 C.ar    1  UNL1       -0.0401
     25 C           9.5273   -0.2289    0.0000 C.ar    1  UNL1       -0.0401
     26 C          11.2593   -0.2223    0.0000 C.ar    1  UNL1        0.0368
     27 C          11.2632   -1.2223    0.0000 C.ar    1  UNL1       -0.0479
     28 C          10.3914    0.2744    0.0000 C.ar    1  UNL1       -0.0479
     29 CG         14.7157    1.7911    0.0000 C.3     1  UNL1        0.0470
     30 C          12.1234    0.2811    0.0000 C.2     0  ACE0        0.2447
     31 C          14.7234   -0.2089    0.0000 C.2     1  UNL1        0.3253
     32 CD         14.7118    2.7911    0.0000 C.2     1  UNL1        0.3048
     33 H           6.9301   -0.8890    0.0000 H       1  UNL1        0.0528
     34 H           7.1441   -3.3643    0.0000 H       1  UNL1        0.0480
     35 H           7.5459   -2.6745    0.0000 H       1  UNL1        0.0480
     36 H           8.1958   -0.7591    0.0000 H       1  UNL1        0.0480
     37 H           7.3988   -0.7622    0.0000 H       1  UNL1        0.0480
     38 H           6.0218   -0.6051    0.0000 H       1  UNL1        0.1467
     39 H           6.0218   -3.9144    0.0000 H       1  UNL1        0.1475
     40 H           8.6694   -2.3523    0.0000 H       1  UNL1        0.1461
     41 H           4.2690   -3.8798    0.0000 H       1  UNL1        0.1698
     42 HA         13.8587   -0.5623    0.0000 H       1  UNL1        0.0614
     43 HB1        13.6373    1.8695    0.0000 H       1  UNL1        0.0294
     44 HB2        13.2414    1.1777    0.0000 H       1  UNL1        0.0294
     45 H          10.4015   -2.3456    0.0000 H       1  UNL1        0.0636
     46 H           8.9892    0.0790    0.0000 H       1  UNL1        0.0636
     47 H          12.9938   -0.8356    0.0000 H       1  UNL1        0.1498
     48 H          11.8013   -1.5302    0.0000 H       1  UNL1        0.0626
     49 H          10.3890    0.8944    0.0000 H       1  UNL1        0.0626
     50 HG1        14.9300    1.2093    0.0000 H       1  UNL1        0.0378
     51 HG2        15.3259    1.9011    0.0000 H       1  UNL1        0.0378
     52 H           2.0000   -2.9498    0.0000 H       1  UNL1        0.1451
     53 H           2.5369   -3.8798    0.0000 H       1  UNL1        0.1451
     54 H          16.1256   -0.0135    0.0000 H       1  UNL1        0.2951
     55 HE1        15.5735    3.9144    0.0000 H       1  UNL1        0.2951
@<TRIPOS>BOND
     1     1    20    2
     2     2    30    2
     3     3    31    1
     4     3    54    1
     5     4    31    2
     6     5    32    1
     7     5    55    1
     8     6    32    2
     9     7    14    1
    10     7    17    1
    11     7    38    1
    12     8    15    1
    13     8    18    1
    14     8    39    1
    15     9    16    1
    16     9    19    1
    17     9    40    1
    18    10    18   ar
    19    10    21   ar
    20    10    41    1
    21    11    20   ar
    22    11    21   ar
    23    12    22    1
    24    12    30   am
    25    12    47    1
    26    13    21    1
    27    13    52    1
    28    13    53    1
    29    14    15    1
    30    14    16    1
    31    14    33    1
    32    15    34    1
    33    15    35    1
    34    16    36    1
    35    16    37    1
    36    17    18   ar
    37    17    20   ar
    38    19    24   ar
    39    19    25   ar
    40    22    23    1
    41    22    31    1
    42    22    42    1
    43    23    29    1
    44    23    43    1
    45    23    44    1
    46    24    27   ar
    47    24    45    1
    48    25    28   ar
    49    25    46    1
    50    26    27   ar
    51    26    28   ar
    52    26    30    1
    53    27    48    1
    54    28    49    1
    55    29    32    1
    56    29    50    1
    57    29    51    1
