@<TRIPOS>MOLECULE
IMPHY010206
 36 38 0 0 0
SMALL
GASTEIGER

@<TRIPOS>ATOM
      1 O           9.8744   -1.5547    0.0000 O.2     1  UNL1       -0.4628
      2 O           8.0622    1.2500    0.0000 O.3     1  UNL1       -0.4937
      3 O           6.3301    1.2500    0.0000 O.2     1  UNL1       -0.2915
      4 O           4.5981    1.2500    0.0000 O.2     1  UNL1       -0.2916
      5 C           7.1962   -0.2500    0.0000 C.ar    1  UNL1        0.0602
      6 C           8.9282   -0.2500    0.0000 C.ar    1  UNL1        0.0624
      7 C           8.0622    0.2500    0.0000 C.ar    1  UNL1        0.1413
      8 C           8.9282   -1.2500    0.0000 C.ar    1  UNL1        0.1383
      9 C           6.3301    0.2500    0.0000 C.2     1  UNL1        0.1741
     10 C           7.1962   -1.2500    0.0000 C.ar    1  UNL1       -0.0442
     11 C           5.4641   -0.2500    0.0000 C.3     1  UNL1        0.0737
     12 C           8.0622   -1.7500    0.0000 C.ar    1  UNL1       -0.0179
     13 C           9.8744    0.0547    0.0000 C.ar    1  UNL1       -0.0126
     14 C           4.5981    0.2500    0.0000 C.2     1  UNL1        0.1706
     15 C          10.4580   -0.7500    0.0000 C.ar    1  UNL1        0.0932
     16 C           3.7320   -0.2500    0.0000 C.ar    1  UNL1        0.0178
     17 C           2.8660    0.2500    0.0000 C.ar    1  UNL1       -0.0513
     18 C           3.7320   -1.2500    0.0000 C.ar    1  UNL1       -0.0513
     19 C           8.9282    1.7500    0.0000 C.3     1  UNL1        0.0788
     20 C           2.0000   -0.2500    0.0000 C.ar    1  UNL1       -0.0611
     21 C           2.8660   -1.7500    0.0000 C.ar    1  UNL1       -0.0611
     22 C           2.0000   -1.2500    0.0000 C.ar    1  UNL1       -0.0617
     23 H           6.6592   -1.5600    0.0000 H       1  UNL1        0.0627
     24 H           5.0656   -0.7249    0.0000 H       1  UNL1        0.0426
     25 H           5.8626   -0.7249    0.0000 H       1  UNL1        0.0426
     26 H           8.0622   -2.3700    0.0000 H       1  UNL1        0.0655
     27 H          10.0670    0.6441    0.0000 H       1  UNL1        0.0656
     28 H          11.0780   -0.7500    0.0000 H       1  UNL1        0.1030
     29 H           2.8660    0.8700    0.0000 H       1  UNL1        0.0624
     30 H           4.2690   -1.5600    0.0000 H       1  UNL1        0.0624
     31 H           9.2382    1.2131    0.0000 H       1  UNL1        0.0660
     32 H           9.4651    2.0600    0.0000 H       1  UNL1        0.0660
     33 H           8.6182    2.2869    0.0000 H       1  UNL1        0.0660
     34 H           1.4631    0.0600    0.0000 H       1  UNL1        0.0618
     35 H           2.8660   -2.3700    0.0000 H       1  UNL1        0.0618
     36 H           1.4631   -1.5600    0.0000 H       1  UNL1        0.0618
@<TRIPOS>BOND
     1     1     8   ar
     2     1    15   ar
     3     2     7    1
     4     2    19    1
     5     3     9    2
     6     4    14    2
     7     5     7   ar
     8     5     9    1
     9     5    10   ar
    10     6     7   ar
    11     6     8   ar
    12     6    13   ar
    13     8    12   ar
    14     9    11    1
    15    10    12   ar
    16    10    23    1
    17    11    14    1
    18    11    24    1
    19    11    25    1
    20    12    26    1
    21    13    15   ar
    22    13    27    1
    23    14    16    1
    24    15    28    1
    25    16    17   ar
    26    16    18   ar
    27    17    20   ar
    28    17    29    1
    29    18    21   ar
    30    18    30    1
    31    19    31    1
    32    19    32    1
    33    19    33    1
    34    20    22   ar
    35    20    34    1
    36    21    22   ar
    37    21    35    1
    38    22    36    1
