@<TRIPOS>MOLECULE
IMPHY010776
 33 37 0 0 0
SMALL
GASTEIGER

@<TRIPOS>ATOM
      1 C           6.7642   -4.5415    0.0000 C.3     1  UNL1       -0.0036
      2 C           6.7642   -5.8175    0.0000 C.3     1  UNL1       -0.0037
      3 C           5.6391   -6.4486    0.0000 C.3     1  UNL1       -0.0191
      4 C           4.5140   -5.8175    0.0000 C.3     1  UNL1       -0.0033
      5 C           3.3890   -6.4486    0.0000 C.3     1  UNL1        0.0005
      6 C           3.3890   -7.7521    0.0000 C.3     1  UNL1        0.0073
      7 C           4.5140   -8.3969    0.0000 C.3     1  UNL1        0.0001
      8 C           5.6391   -7.7521    0.0000 C.3     1  UNL1       -0.0039
      9 C           7.8756   -3.8829    0.0000 C.3     1  UNL1       -0.0191
     10 C           8.9732   -4.5415    0.0000 C.3     1  UNL1       -0.0039
     11 C           8.9732   -5.8175    0.0000 C.3     1  UNL1       -0.0006
     12 C           5.6391   -3.8829    0.0000 C.3     1  UNL1       -0.0003
     13 C           4.5140   -4.5140    0.0000 C.3     1  UNL1       -0.0003
     14 C           3.3890   -5.1177    0.0000 C.3     1  UNL1       -0.0003
     15 C           2.2502   -5.8175    0.0000 C.3     1  UNL1        0.0078
     16 C           1.1525   -6.4486    0.0000 C.3     1  UNL1        0.0645
     17 C           1.1525   -7.7521    0.0000 C.2     1  UNL1        0.1506
     18 C           2.2502   -8.3969    0.0000 C.3     1  UNL1        0.0645
     19 C           6.7642   -3.2243    0.0000 C.3     1  UNL1       -0.0003
     20 C           6.7642   -7.0386    0.0000 C.3     1  UNL1       -0.0003
     21 C           7.8756   -2.6481    0.0000 C.3     1  UNL1       -0.0036
     22 C           9.0418   -2.0169    0.0000 C.3     1  UNL1        0.0000
     23 C          10.2218   -2.6892    0.0000 C.3     1  UNL1        0.0037
     24 C          11.3743   -2.0169    0.0000 C.3     1  UNL1        0.0152
     25 C          10.7020   -0.8507    0.0000 C.3     1  UNL1        0.0040
     26 O           0.0000   -8.4381    0.0000 O.2     1  UNL1       -0.2961
     27 C           6.7093   -1.9895    0.0000 C.3     1  UNL1       -0.0003
     28 C          12.0603   -3.1831    0.0000 C.3     1  UNL1        0.0040
     29 C          12.5542   -1.3446    0.0000 C.2     1  UNL1       -0.0445
     30 C          12.5542    0.0000    0.0000 C.2     1  UNL1       -0.0091
     31 C          13.7205   -2.0169    0.0000 C.3     1  UNL1        0.0263
     32 H           5.6254   -5.1177    0.0000 H       1  UNL1        0.0318
     33 H           7.9167   -5.1315    0.0000 H       1  UNL1        0.0318
@<TRIPOS>BOND
     1     1     2    1
     2     1    12    1
     3     1     9    1
     4     1    19    1
     5     2     3    1
     6     2    11    1
     7     2    20    1
     8     3     4    1
     9     3     8    1
    10     3    32    1
    11     4     5    1
    12     4    13    1
    13     4    14    1
    14     5     6    1
    15     5    15    1
    16     5    14    1
    17     6    18    1
    18     6     7    1
    19     7     8    1
    20     9    10    1
    21     9    21    1
    22     9    33    1
    23    10    11    1
    24    12    13    1
    25    15    16    1
    26    16    17    1
    27    17    18    1
    28    17    26    2
    29    21    22    1
    30    21    27    1
    31    22    23    1
    32    23    24    1
    33    24    29    1
    34    24    25    1
    35    24    28    1
    36    29    30    2
    37    29    31    1
