@<TRIPOS>MOLECULE
IMPHY010157
 58 59 0 0 0
SMALL
GASTEIGER

@<TRIPOS>ATOM
      1 O           6.2000   -2.6420    0.0000 O.3     1  UNL1       -0.4532
      2 O           5.1350    0.0950    0.0000 O.3     1  UNL1       -0.4570
      3 O           9.4651   -3.4050    0.0000 O.3     1  UNL1       -0.4568
      4 O           4.3660   -3.0890    0.0000 O.2     1  UNL1       -0.2453
      5 O           6.0010    1.5950    0.0000 O.2     1  UNL1       -0.2452
      6 O          10.3312   -1.9050    0.0000 O.2     1  UNL1       -0.2511
      7 O           2.5369    1.5950    0.0000 O.3     1  UNL1       -0.3902
      8 O           3.4030    4.0950    0.0000 O.3     1  UNL1       -0.3910
      9 C           6.0010   -1.4050    0.0000 C.3     1  UNL1        0.0683
     10 C           6.0010   -0.4050    0.0000 C.3     1  UNL1        0.1177
     11 C           6.8671   -1.9050    0.0000 C.3     1  UNL1        0.1323
     12 C           6.8671    0.0950    0.0000 C.3     1  UNL1        0.0060
     13 C           5.0292   -1.6142    0.0000 C.2     1  UNL1        0.0400
     14 C           6.8671   -2.9050    0.0000 C.2     1  UNL1       -0.0408
     15 C           7.7331   -0.4050    0.0000 C.2     1  UNL1       -0.0729
     16 C           7.7331   -3.4050    0.0000 C.2     1  UNL1       -0.0328
     17 C           5.1092   -2.4199    0.0000 C.2     1  UNL1        0.3357
     18 C           8.5991   -2.9050    0.0000 C.3     1  UNL1        0.1274
     19 C           8.5991   -1.9050    0.0000 C.3     1  UNL1        0.0067
     20 C           7.7331   -1.4050    0.0000 C.2     1  UNL1       -0.0811
     21 C           4.1623   -1.1157    0.0000 C.2     1  UNL1       -0.0882
     22 C           8.5991    0.0950    0.0000 C.3     1  UNL1       -0.0437
     23 C           7.7331   -4.4050    0.0000 C.3     1  UNL1       -0.0402
     24 C           5.1350    1.0950    0.0000 C.2     1  UNL1        0.3374
     25 C           4.2690    1.5950    0.0000 C.2     1  UNL1        0.0599
     26 C          10.3312   -2.9050    0.0000 C.2     1  UNL1        0.3045
     27 C           3.4030    1.0950    0.0000 C.3     1  UNL1        0.0757
     28 C           4.2690    2.5950    0.0000 C.2     1  UNL1       -0.0468
     29 C          11.1972   -3.4050    0.0000 C.3     1  UNL1        0.0333
     30 C           3.4030    3.0950    0.0000 C.3     1  UNL1        0.0632
     31 H           5.3398   -0.8709    0.0000 H       1  UNL1        0.0427
     32 H           6.0010    0.2150    0.0000 H       1  UNL1        0.0744
     33 H           7.6032   -1.4800    0.0000 H       1  UNL1        0.0787
     34 H           7.2656    0.5699    0.0000 H       1  UNL1        0.0346
     35 H           6.4685    0.5699    0.0000 H       1  UNL1        0.0346
     36 H           6.3921   -3.3035    0.0000 H       1  UNL1        0.0609
     37 H           8.5991   -3.5250    0.0000 H       1  UNL1        0.0785
     38 H           9.2097   -2.0127    0.0000 H       1  UNL1        0.0346
     39 H           8.8112   -1.3224    0.0000 H       1  UNL1        0.0346
     40 H           7.1225   -1.2972    0.0000 H       1  UNL1        0.0573
     41 H           4.1613   -0.4957    0.0000 H       1  UNL1        0.0540
     42 H           3.6259   -1.4266    0.0000 H       1  UNL1        0.0540
     43 H           8.9091   -0.4419    0.0000 H       1  UNL1        0.0274
     44 H           9.1360    0.4050    0.0000 H       1  UNL1        0.0274
     45 H           8.2891    0.6319    0.0000 H       1  UNL1        0.0274
     46 H           7.1131   -4.4050    0.0000 H       1  UNL1        0.0276
     47 H           7.7331   -5.0250    0.0000 H       1  UNL1        0.0276
     48 H           8.3531   -4.4050    0.0000 H       1  UNL1        0.0276
     49 H           3.0044    0.6201    0.0000 H       1  UNL1        0.0609
     50 H           3.8015    0.6201    0.0000 H       1  UNL1        0.0609
     51 H           4.8059    2.9050    0.0000 H       1  UNL1        0.0600
     52 H          10.8872   -3.9419    0.0000 H       1  UNL1        0.0342
     53 H          11.7341   -3.7150    0.0000 H       1  UNL1        0.0342
     54 H          11.5072   -2.8681    0.0000 H       1  UNL1        0.0342
     55 H           2.7924    3.2027    0.0000 H       1  UNL1        0.0601
     56 H           3.1909    2.5124    0.0000 H       1  UNL1        0.0601
     57 H           2.0000    1.2850    0.0000 H       1  UNL1        0.2099
     58 H           2.8660    4.4050    0.0000 H       1  UNL1        0.2098
@<TRIPOS>BOND
     1     1    11    1
     2     1    17    1
     3    10     2    1
     4     2    24    1
     5    18     3    1
     6     3    26    1
     7     4    17    2
     8     5    24    2
     9     6    26    2
    10     7    27    1
    11     7    57    1
    12     8    30    1
    13     8    58    1
    14     9    10    1
    15     9    11    1
    16     9    13    1
    17     9    31    1
    18    10    12    1
    19    10    32    1
    20    11    14    1
    21    11    33    1
    22    12    15    1
    23    12    34    1
    24    12    35    1
    25    13    17    1
    26    13    21    2
    27    14    16    2
    28    14    36    1
    29    15    20    2
    30    15    22    1
    31    16    18    1
    32    16    23    1
    33    18    19    1
    34    18    37    1
    35    19    20    1
    36    19    38    1
    37    19    39    1
    38    20    40    1
    39    21    41    1
    40    21    42    1
    41    22    43    1
    42    22    44    1
    43    22    45    1
    44    23    46    1
    45    23    47    1
    46    23    48    1
    47    24    25    1
    48    25    27    1
    49    25    28    2
    50    26    29    1
    51    27    49    1
    52    27    50    1
    53    28    30    1
    54    28    51    1
    55    29    52    1
    56    29    53    1
    57    29    54    1
    58    30    55    1
    59    30    56    1
