@<TRIPOS>MOLECULE
IMPHY012913
 21 20 0 0 0
SMALL
GASTEIGER

@<TRIPOS>ATOM
      1 O           3.7320   -1.5000    0.0000 O.2     1  UNL1       -0.2924
      2 C           6.3301    1.0000    0.0000 C.3     1  UNL1       -0.0376
      3 C           4.5981    0.0000    0.0000 C.3     1  UNL1        0.0280
      4 C           6.3301   -0.0000    0.0000 C.2     1  UNL1       -0.0878
      5 C           5.4641   -0.5000    0.0000 C.2     1  UNL1       -0.0806
      6 C           7.1962    1.5000    0.0000 C.3     1  UNL1       -0.0618
      7 C           3.7320   -0.5000    0.0000 C.2     1  UNL1        0.1592
      8 C           2.8660    0.0000    0.0000 C.2     1  UNL1       -0.0260
      9 C           2.0000   -0.5000    0.0000 C.2     1  UNL1       -0.0954
     10 H           6.1181    1.5826    0.0000 H       1  UNL1        0.0305
     11 H           5.7196    0.8923    0.0000 H       1  UNL1        0.0305
     12 H           4.9966    0.4749    0.0000 H       1  UNL1        0.0387
     13 H           4.1996    0.4749    0.0000 H       1  UNL1        0.0387
     14 H           6.8671   -0.3100    0.0000 H       1  UNL1        0.0569
     15 H           5.4641   -1.1200    0.0000 H       1  UNL1        0.0573
     16 H           7.5062    0.9631    0.0000 H       1  UNL1        0.0233
     17 H           7.7331    1.8100    0.0000 H       1  UNL1        0.0233
     18 H           6.8862    2.0369    0.0000 H       1  UNL1        0.0233
     19 H           2.8660    0.6200    0.0000 H       1  UNL1        0.0646
     20 H           1.4631   -0.1900    0.0000 H       1  UNL1        0.0536
     21 H           2.0000   -1.1200    0.0000 H       1  UNL1        0.0536
@<TRIPOS>BOND
     1     1     7    2
     2     2     4    1
     3     2     6    1
     4     2    10    1
     5     2    11    1
     6     3     5    1
     7     3     7    1
     8     3    12    1
     9     3    13    1
    10     4     5    2
    11     4    14    1
    12     5    15    1
    13     6    16    1
    14     6    17    1
    15     6    18    1
    16     7     8    1
    17     8     9    2
    18     8    19    1
    19     9    20    1
    20     9    21    1
