@<TRIPOS>MOLECULE
IMPHY007545
 40 41 0 0 0
SMALL
GASTEIGER

@<TRIPOS>ATOM
      1 O           5.3781   -1.5795    0.0000 O.3     1  UNL1       -0.3653
      2 O           6.6030    0.9646    0.0000 O.2     1  UNL1       -0.2973
      3 O           2.3090   -2.2518    0.0000 O.2     1  UNL1       -0.4707
      4 C           6.1871   -0.9917    0.0000 C.3     1  UNL1        0.0743
      5 C           5.8781   -0.0406    0.0000 C.3     1  UNL1       -0.0209
      6 C           4.8781   -0.0406    0.0000 C.3     1  UNL1       -0.0197
      7 C           4.5691   -0.9917    0.0000 C.3     1  UNL1        0.0873
      8 C           7.1382   -0.6827    0.0000 C.3     1  UNL1        0.0347
      9 C           6.7749   -1.8007    0.0000 C.3     1  UNL1       -0.0354
     10 C           3.6180   -1.3007    0.0000 C.ar    1  UNL1        0.0188
     11 C           7.3461    0.2955    0.0000 C.2     1  UNL1        0.1363
     12 C           8.2972    0.6045    0.0000 C.3     1  UNL1        0.0083
     13 C           8.5051    1.5826    0.0000 C.3     1  UNL1       -0.0401
     14 C           2.8090   -0.7129    0.0000 C.ar    1  UNL1       -0.0183
     15 C           3.3090   -2.2518    0.0000 C.ar    1  UNL1        0.0973
     16 C           9.4561    1.8916    0.0000 C.3     1  UNL1       -0.0623
     17 C           7.7619    2.2518    0.0000 C.3     1  UNL1       -0.0623
     18 C           2.0000   -1.3007    0.0000 C.ar    1  UNL1        0.0920
     19 H           6.4846    0.0883    0.0000 H       1  UNL1        0.0294
     20 H           5.8133    0.5760    0.0000 H       1  UNL1        0.0294
     21 H           4.9429    0.5760    0.0000 H       1  UNL1        0.0294
     22 H           4.2717    0.0883    0.0000 H       1  UNL1        0.0294
     23 H           4.4721   -1.6041    0.0000 H       1  UNL1        0.0647
     24 H           7.2245   -1.2966    0.0000 H       1  UNL1        0.0370
     25 H           7.7578   -0.7043    0.0000 H       1  UNL1        0.0370
     26 H           6.2733   -2.1651    0.0000 H       1  UNL1        0.0257
     27 H           7.1393   -2.3023    0.0000 H       1  UNL1        0.0257
     28 H           7.2765   -1.4363    0.0000 H       1  UNL1        0.0257
     29 H           8.3834   -0.0095    0.0000 H       1  UNL1        0.0344
     30 H           8.9168    0.5829    0.0000 H       1  UNL1        0.0344
     31 H           7.9154    1.3910    0.0000 H       1  UNL1        0.0299
     32 H           2.8090   -0.0929    0.0000 H       1  UNL1        0.0652
     33 H           3.6734   -2.7534    0.0000 H       1  UNL1        0.1033
     34 H           9.6477    1.3020    0.0000 H       1  UNL1        0.0232
     35 H          10.0458    2.0832    0.0000 H       1  UNL1        0.0232
     36 H           9.2645    2.4813    0.0000 H       1  UNL1        0.0232
     37 H           8.1768    2.7125    0.0000 H       1  UNL1        0.0232
     38 H           7.3012    2.6666    0.0000 H       1  UNL1        0.0232
     39 H           7.3471    1.7910    0.0000 H       1  UNL1        0.0232
     40 H           1.4103   -1.1091    0.0000 H       1  UNL1        0.1029
@<TRIPOS>BOND
     1     1     4    1
     2     1     7    1
     3     2    11    2
     4     3    15   ar
     5     3    18   ar
     6     4     5    1
     7     4     8    1
     8     4     9    1
     9     5     6    1
    10     5    19    1
    11     5    20    1
    12     6     7    1
    13     6    21    1
    14     6    22    1
    15     7    10    1
    16     7    23    1
    17     8    11    1
    18     8    24    1
    19     8    25    1
    20     9    26    1
    21     9    27    1
    22     9    28    1
    23    10    14   ar
    24    10    15   ar
    25    11    12    1
    26    12    13    1
    27    12    29    1
    28    12    30    1
    29    13    16    1
    30    13    17    1
    31    13    31    1
    32    14    18   ar
    33    14    32    1
    34    15    33    1
    35    16    34    1
    36    16    35    1
    37    16    36    1
    38    17    37    1
    39    17    38    1
    40    17    39    1
    41    18    40    1
