@<TRIPOS>MOLECULE
IMPHY008533
 53 56 0 0 0
SMALL
GASTEIGER

@<TRIPOS>ATOM
      1 O           3.9061    2.3284    0.0000 O.3     1  UNL1       -0.4808
      2 O           7.4420    2.3006    0.0000 O.3     1  UNL1       -0.4807
      3 O           5.6660   -0.7063    0.0000 O.3     1  UNL1       -0.5052
      4 O           8.2641    0.7937    0.0000 O.2     1  UNL1       -0.2870
      5 C           7.4501    3.3422    0.0000 C.3     1  UNL1        0.1235
      6 C           3.0000    1.8146    0.0000 C.3     1  UNL1        0.1235
      7 C           5.6660    2.2937    0.0000 C.ar    1  UNL1        0.0597
      8 C           4.8000    1.7937    0.0000 C.ar    1  UNL1        0.1430
      9 C           6.5320    1.7937    0.0000 C.ar    1  UNL1        0.1467
     10 C           4.8000    0.7937    0.0000 C.ar    1  UNL1        0.0594
     11 C           6.5320    0.7937    0.0000 C.ar    1  UNL1        0.1060
     12 C           6.5480    3.8630    0.0000 C.2     1  UNL1       -0.0408
     13 C           5.6500    3.3352    0.0000 C.2     1  UNL1       -0.0478
     14 C           3.0000    0.7729    0.0000 C.2     1  UNL1       -0.0408
     15 C           5.6660    0.2937    0.0000 C.ar    1  UNL1        0.1418
     16 C           3.9061    0.2591    0.0000 C.2     1  UNL1       -0.0478
     17 C           7.9534    4.2063    0.0000 C.3     1  UNL1       -0.0215
     18 C           8.4501    3.3383    0.0000 C.3     1  UNL1       -0.0215
     19 C           2.0000    1.8184    0.0000 C.3     1  UNL1       -0.0215
     20 C           2.5033    2.6825    0.0000 C.3     1  UNL1       -0.0215
     21 C           7.3981    0.2937    0.0000 C.2     1  UNL1        0.1931
     22 C           7.3981   -0.7063    0.0000 C.2     1  UNL1       -0.0135
     23 C           8.2641   -1.2063    0.0000 C.2     1  UNL1       -0.0510
     24 C           8.2641   -2.2063    0.0000 C.ar    1  UNL1       -0.0249
     25 C           7.3981   -2.7063    0.0000 C.ar    1  UNL1       -0.0546
     26 C           9.1301   -2.7063    0.0000 C.ar    1  UNL1       -0.0546
     27 C           7.3981   -3.7063    0.0000 C.ar    1  UNL1       -0.0612
     28 C           9.1301   -3.7063    0.0000 C.ar    1  UNL1       -0.0612
     29 C           8.2641   -4.2063    0.0000 C.ar    1  UNL1       -0.0617
     30 H           6.5456    4.4830    0.0000 H       1  UNL1        0.0611
     31 H           5.1095    3.6390    0.0000 H       1  UNL1        0.0624
     32 H           2.4643    0.4608    0.0000 H       1  UNL1        0.0611
     33 H           3.9132   -0.3609    0.0000 H       1  UNL1        0.0624
     34 H           8.4477    2.7183    0.0000 H       1  UNL1        0.0271
     35 H           9.0701    3.3359    0.0000 H       1  UNL1        0.0271
     36 H           8.4525    3.9583    0.0000 H       1  UNL1        0.0271
     37 H           8.4892    3.8942    0.0000 H       1  UNL1        0.0271
     38 H           8.2655    4.7420    0.0000 H       1  UNL1        0.0271
     39 H           7.4177    4.5183    0.0000 H       1  UNL1        0.0271
     40 H           2.0024    2.4384    0.0000 H       1  UNL1        0.0271
     41 H           1.3800    1.8208    0.0000 H       1  UNL1        0.0271
     42 H           1.9976    1.1984    0.0000 H       1  UNL1        0.0271
     43 H           3.0415    2.9904    0.0000 H       1  UNL1        0.0271
     44 H           2.1954    3.2206    0.0000 H       1  UNL1        0.0271
     45 H           1.9652    2.3746    0.0000 H       1  UNL1        0.0271
     46 H           5.1291   -1.0163    0.0000 H       1  UNL1        0.2922
     47 H           6.8611   -1.0163    0.0000 H       1  UNL1        0.0656
     48 H           8.8010   -0.8963    0.0000 H       1  UNL1        0.0625
     49 H           6.8611   -2.3963    0.0000 H       1  UNL1        0.0623
     50 H           9.6671   -2.3963    0.0000 H       1  UNL1        0.0623
     51 H           6.8611   -4.0163    0.0000 H       1  UNL1        0.0618
     52 H           9.6671   -4.0163    0.0000 H       1  UNL1        0.0618
     53 H           8.2641   -4.8263    0.0000 H       1  UNL1        0.0618
@<TRIPOS>BOND
     1     1     6    1
     2     1     8    1
     3     2     5    1
     4     2     9    1
     5     3    15    1
     6     3    46    1
     7     4    21    2
     8     5    12    1
     9     5    17    1
    10     5    18    1
    11     6    14    1
    12     6    19    1
    13     6    20    1
    14     7     8   ar
    15     7     9   ar
    16     7    13    1
    17     8    10   ar
    18     9    11   ar
    19    10    15   ar
    20    10    16    1
    21    11    15   ar
    22    11    21    1
    23    12    13    2
    24    12    30    1
    25    13    31    1
    26    14    16    2
    27    14    32    1
    28    16    33    1
    29    17    37    1
    30    17    38    1
    31    17    39    1
    32    18    34    1
    33    18    35    1
    34    18    36    1
    35    19    40    1
    36    19    41    1
    37    19    42    1
    38    20    43    1
    39    20    44    1
    40    20    45    1
    41    21    22    1
    42    22    23    2
    43    22    47    1
    44    23    24    1
    45    23    48    1
    46    24    25   ar
    47    24    26   ar
    48    25    27   ar
    49    25    49    1
    50    26    28   ar
    51    26    50    1
    52    27    29   ar
    53    27    51    1
    54    28    29   ar
    55    28    52    1
    56    29    53    1
