@<TRIPOS>MOLECULE
IMPHY017147
 44 46 0 0 0
SMALL
GASTEIGER

@<TRIPOS>ATOM
      1 O           5.3693    1.9986    0.0000 O.3     1  UNL1       -0.4602
      2 O           7.0965    2.1280    0.0000 O.2     1  UNL1       -0.2546
      3 C           4.0430   -0.7554    0.0000 C.3     1  UNL1       -0.0228
      4 C           3.1420   -0.3215    0.0000 C.3     1  UNL1       -0.0296
      5 C           2.9195    0.6534    0.0000 C.3     1  UNL1       -0.0251
      6 C           3.5430    1.4352    0.0000 C.3     1  UNL1        0.0047
      7 C           4.1499    0.4214    0.0000 C.3     1  UNL1       -0.0399
      8 C           3.9070   -1.7401    0.0000 C.3     1  UNL1       -0.0379
      9 C           4.9440   -0.3215    0.0000 C.3     1  UNL1       -0.0432
     10 C           4.5430    1.4352    0.0000 C.3     1  UNL1        0.1138
     11 C           2.4569   -1.0418    0.0000 C.3     1  UNL1       -0.0489
     12 C           2.9288   -1.9168    0.0000 C.3     1  UNL1       -0.0497
     13 C           5.1665    0.6534    0.0000 C.3     1  UNL1       -0.0123
     14 C           2.2616    1.4065    0.0000 C.3     1  UNL1       -0.0592
     15 C           2.0000    0.2604    0.0000 C.3     1  UNL1       -0.0592
     16 C           4.6286   -2.4324    0.0000 C.3     1  UNL1       -0.0619
     17 C           4.4683    2.4324    0.0000 C.3     1  UNL1       -0.0246
     18 C           6.2702    1.5647    0.0000 C.2     1  UNL1        0.2948
     19 H           2.3762    0.0473    0.0000 H       1  UNL1        0.0311
     20 H           3.3539    2.2639    0.0000 H       1  UNL1        0.0345
     21 H           4.7199    0.1775    0.0000 H       1  UNL1        0.0275
     22 H           4.5577    0.8884    0.0000 H       1  UNL1        0.0275
     23 H           3.7279   -2.3337    0.0000 H       1  UNL1        0.0304
     24 H           5.0820   -0.9260    0.0000 H       1  UNL1        0.0272
     25 H           5.5640   -0.3215    0.0000 H       1  UNL1        0.0272
     26 H           2.0551   -0.5697    0.0000 H       1  UNL1        0.0268
     27 H           1.9452   -1.3918    0.0000 H       1  UNL1        0.0268
     28 H           2.3551   -2.1521    0.0000 H       1  UNL1        0.0268
     29 H           3.1025   -2.5120    0.0000 H       1  UNL1        0.0268
     30 H           5.7251    0.3844    0.0000 H       1  UNL1        0.0304
     31 H           5.5531    1.1382    0.0000 H       1  UNL1        0.0304
     32 H           2.7285    1.8144    0.0000 H       1  UNL1        0.0235
     33 H           1.8537    1.8734    0.0000 H       1  UNL1        0.0235
     34 H           1.7947    0.9986    0.0000 H       1  UNL1        0.0235
     35 H           1.7563    0.8305    0.0000 H       1  UNL1        0.0235
     36 H           1.4299    0.0167    0.0000 H       1  UNL1        0.0235
     37 H           2.2437   -0.3097    0.0000 H       1  UNL1        0.0235
     38 H           4.1994   -2.8798    0.0000 H       1  UNL1        0.0233
     39 H           5.0760   -2.8617    0.0000 H       1  UNL1        0.0233
     40 H           5.0578   -1.9851    0.0000 H       1  UNL1        0.0233
     41 H           5.0866    2.4788    0.0000 H       1  UNL1        0.0268
     42 H           4.4220    3.0507    0.0000 H       1  UNL1        0.0268
     43 H           3.8500    2.3861    0.0000 H       1  UNL1        0.0268
     44 H           6.3166    0.9464    0.0000 H       1  UNL1        0.1512
@<TRIPOS>BOND
     1    10     1    1
     2     1    18    1
     3     2    18    2
     4     3     4    1
     5     3     7    1
     6     3     8    1
     7     3     9    1
     8     4     5    1
     9     4    11    1
    10     4    19    1
    11     5     6    1
    12     5    14    1
    13     5    15    1
    14     6     7    1
    15     6    10    1
    16     6    20    1
    17     7    21    1
    18     7    22    1
    19     8    12    1
    20     8    16    1
    21     8    23    1
    22     9    13    1
    23     9    24    1
    24     9    25    1
    25    10    13    1
    26    10    17    1
    27    11    12    1
    28    11    26    1
    29    11    27    1
    30    12    28    1
    31    12    29    1
    32    13    30    1
    33    13    31    1
    34    14    32    1
    35    14    33    1
    36    14    34    1
    37    15    35    1
    38    15    36    1
    39    15    37    1
    40    16    38    1
    41    16    39    1
    42    16    40    1
    43    17    41    1
    44    17    42    1
    45    17    43    1
    46    18    44    1
