@<TRIPOS>MOLECULE
IMPHY015228
 35 34 0 0 0
SMALL
GASTEIGER

@<TRIPOS>ATOM
      1 C           4.5981    0.2500    0.0000 C.3     1  UNL1       -0.0434
      2 C           5.4641    0.7500    0.0000 C.3     1  UNL1       -0.0479
      3 C           6.3301    0.2500    0.0000 C.3     1  UNL1       -0.0439
      4 C           3.7320    0.7500    0.0000 C.3     1  UNL1       -0.0481
      5 C           2.8660    0.2500    0.0000 C.3     1  UNL1       -0.0465
      6 C           7.1962    0.7500    0.0000 C.3     1  UNL1       -0.0533
      7 C           4.5981   -0.7500    0.0000 C.3     1  UNL1       -0.0624
      8 C           6.3301   -0.7500    0.0000 C.3     1  UNL1       -0.0624
      9 C           2.0000    0.7500    0.0000 C.3     1  UNL1       -0.0627
     10 C           2.8660   -0.7500    0.0000 C.3     1  UNL1       -0.0627
     11 C           8.0622    0.2500    0.0000 C.3     1  UNL1       -0.0650
     12 H           5.1350   -0.0600    0.0000 H       1  UNL1        0.0298
     13 H           5.8626    1.2250    0.0000 H       1  UNL1        0.0270
     14 H           5.0656    1.2250    0.0000 H       1  UNL1        0.0270
     15 H           6.8671   -0.0600    0.0000 H       1  UNL1        0.0298
     16 H           4.1306    1.2250    0.0000 H       1  UNL1        0.0270
     17 H           3.3335    1.2250    0.0000 H       1  UNL1        0.0270
     18 H           2.8660    0.8700    0.0000 H       1  UNL1        0.0296
     19 H           7.5947    1.2250    0.0000 H       1  UNL1        0.0265
     20 H           6.7976    1.2250    0.0000 H       1  UNL1        0.0265
     21 H           3.9781   -0.7500    0.0000 H       1  UNL1        0.0232
     22 H           4.5981   -1.3700    0.0000 H       1  UNL1        0.0232
     23 H           5.2181   -0.7500    0.0000 H       1  UNL1        0.0232
     24 H           5.7101   -0.7500    0.0000 H       1  UNL1        0.0232
     25 H           6.3301   -1.3700    0.0000 H       1  UNL1        0.0232
     26 H           6.9501   -0.7500    0.0000 H       1  UNL1        0.0232
     27 H           2.3100    1.2869    0.0000 H       1  UNL1        0.0232
     28 H           1.4631    1.0600    0.0000 H       1  UNL1        0.0232
     29 H           1.6900    0.2131    0.0000 H       1  UNL1        0.0232
     30 H           2.2460   -0.7500    0.0000 H       1  UNL1        0.0232
     31 H           2.8660   -1.3700    0.0000 H       1  UNL1        0.0232
     32 H           3.4860   -0.7500    0.0000 H       1  UNL1        0.0232
     33 H           7.7522   -0.2869    0.0000 H       1  UNL1        0.0230
     34 H           8.5991   -0.0600    0.0000 H       1  UNL1        0.0230
     35 H           8.3722    0.7869    0.0000 H       1  UNL1        0.0230
@<TRIPOS>BOND
     1     1     2    1
     2     1     4    1
     3     1     7    1
     4     1    12    1
     5     2     3    1
     6     2    13    1
     7     2    14    1
     8     3     6    1
     9     3     8    1
    10     3    15    1
    11     4     5    1
    12     4    16    1
    13     4    17    1
    14     5     9    1
    15     5    10    1
    16     5    18    1
    17     6    11    1
    18     6    19    1
    19     6    20    1
    20     7    21    1
    21     7    22    1
    22     7    23    1
    23     8    24    1
    24     8    25    1
    25     8    26    1
    26     9    27    1
    27     9    28    1
    28     9    29    1
    29    10    30    1
    30    10    31    1
    31    10    32    1
    32    11    33    1
    33    11    34    1
    34    11    35    1
