@<TRIPOS>MOLECULE
IMPHY012817
 70 68 0 0 0
SMALL
GASTEIGER

@<TRIPOS>ATOM
      1 P           3.4030   -0.4050    0.0000 P.3     1  UNL1        0.0000
      2 NA          3.4030    1.3270    0.0000 Na      2  UNL2        0.0000
      3 O           7.7331    0.0950    0.0000 O.3     1  UNL1        0.0000
      4 O           8.5991   -1.4050    0.0000 O.2     1  UNL1        0.0000
      5 O           6.0010    1.0950    0.0000 O.3     1  UNL1        0.0000
      6 O           4.2690    0.0950    0.0000 O.3     1  UNL1        0.0000
      7 O           2.9030    0.4610    0.0000 O.co2   1  UNL1       -0.5000
      8 O           2.5369   -0.9050    0.0000 O.3     1  UNL1        0.0000
      9 O           3.9030   -1.2710    0.0000 O.2     1  UNL1       -0.5000
     10 C          12.0632   -0.4050    0.0000 C.3     1  UNL1        0.0000
     11 C          12.9292    0.0950    0.0000 C.3     1  UNL1        0.0000
     12 C          19.8574    0.0950    0.0000 C.3     1  UNL1        0.0000
     13 C          18.9914   -0.4050    0.0000 C.3     1  UNL1        0.0000
     14 C          11.1972    0.0950    0.0000 C.3     1  UNL1        0.0000
     15 C          20.7235   -0.4050    0.0000 C.3     1  UNL1        0.0000
     16 C          13.7953   -0.4050    0.0000 C.3     1  UNL1        0.0000
     17 C          18.1254    0.0950    0.0000 C.3     1  UNL1        0.0000
     18 C          21.5895    0.0950    0.0000 C.3     1  UNL1        0.0000
     19 C          10.3312   -0.4050    0.0000 C.3     1  UNL1        0.0000
     20 C          14.6613    0.0950    0.0000 C.3     1  UNL1        0.0000
     21 C          17.2594   -0.4050    0.0000 C.3     1  UNL1        0.0000
     22 C          22.4555   -0.4050    0.0000 C.3     1  UNL1        0.0000
     23 C           9.4651    0.0950    0.0000 C.3     1  UNL1        0.0000
     24 C          15.5273   -0.4050    0.0000 C.2     1  UNL1        0.0000
     25 C          16.3933    0.0950    0.0000 C.2     1  UNL1        0.0000
     26 C          23.3215    0.0950    0.0000 C.3     1  UNL1        0.0000
     27 C           8.5991   -0.4050    0.0000 C.2     1  UNL1        0.0000
     28 C           6.8671   -0.4050    0.0000 C.3     1  UNL1        0.0000
     29 C           6.0010    0.0950    0.0000 C.3     1  UNL1        0.0000
     30 C           5.1350   -0.4050    0.0000 C.3     1  UNL1        0.0000
     31 H          11.6647   -0.8799    0.0000 H       1  UNL1        0.0000
     32 H          12.4617   -0.8799    0.0000 H       1  UNL1        0.0000
     33 H          13.3278    0.5699    0.0000 H       1  UNL1        0.0000
     34 H          12.5307    0.5699    0.0000 H       1  UNL1        0.0000
     35 H          20.2560    0.5699    0.0000 H       1  UNL1        0.0000
     36 H          19.4589    0.5699    0.0000 H       1  UNL1        0.0000
     37 H          18.5929   -0.8799    0.0000 H       1  UNL1        0.0000
     38 H          19.3899   -0.8799    0.0000 H       1  UNL1        0.0000
     39 H          11.5957    0.5699    0.0000 H       1  UNL1        0.0000
     40 H          10.7987    0.5699    0.0000 H       1  UNL1        0.0000
     41 H          20.3249   -0.8799    0.0000 H       1  UNL1        0.0000
     42 H          21.1220   -0.8799    0.0000 H       1  UNL1        0.0000
     43 H          13.3967   -0.8799    0.0000 H       1  UNL1        0.0000
     44 H          14.1938   -0.8799    0.0000 H       1  UNL1        0.0000
     45 H          18.5239    0.5699    0.0000 H       1  UNL1        0.0000
     46 H          17.7269    0.5699    0.0000 H       1  UNL1        0.0000
     47 H          21.9880    0.5699    0.0000 H       1  UNL1        0.0000
     48 H          21.1910    0.5699    0.0000 H       1  UNL1        0.0000
     49 H           9.9326   -0.8799    0.0000 H       1  UNL1        0.0000
     50 H          10.7297   -0.8799    0.0000 H       1  UNL1        0.0000
     51 H          15.0598    0.5699    0.0000 H       1  UNL1        0.0000
     52 H          14.2628    0.5699    0.0000 H       1  UNL1        0.0000
     53 H          16.8608   -0.8799    0.0000 H       1  UNL1        0.0000
     54 H          17.6579   -0.8799    0.0000 H       1  UNL1        0.0000
     55 H          22.0570   -0.8799    0.0000 H       1  UNL1        0.0000
     56 H          22.8540   -0.8799    0.0000 H       1  UNL1        0.0000
     57 H           9.8637    0.5699    0.0000 H       1  UNL1        0.0000
     58 H           9.0666    0.5699    0.0000 H       1  UNL1        0.0000
     59 H          15.5273   -1.0250    0.0000 H       1  UNL1        0.0000
     60 H          16.3933    0.7150    0.0000 H       1  UNL1        0.0000
     61 H          23.6315   -0.4419    0.0000 H       1  UNL1        0.0000
     62 H          23.8585    0.4050    0.0000 H       1  UNL1        0.0000
     63 H          23.0115    0.6319    0.0000 H       1  UNL1        0.0000
     64 H           6.4685   -0.8799    0.0000 H       1  UNL1        0.0000
     65 H           7.2656   -0.8799    0.0000 H       1  UNL1        0.0000
     66 H           6.5380    0.4050    0.0000 H       1  UNL1        0.0000
     67 H           4.7365   -0.8799    0.0000 H       1  UNL1        0.0000
     68 H           5.5335   -0.8799    0.0000 H       1  UNL1        0.0000
     69 H           6.5380    1.4050    0.0000 H       1  UNL1        0.0000
     70 H           2.0000   -0.5950    0.0000 H       1  UNL1        0.0000
@<TRIPOS>UNITY_ATOM_ATTR
2 1
charge 1
7 1
charge -1
@<TRIPOS>BOND
     1     1     6    1
     2     1     7    1
     3     1     8    1
     4     1     9    2
     5     3    27    1
     6     3    28    1
     7     4    27    2
     8     5    29    1
     9     5    69    1
    10     6    30    1
    11     8    70    1
    12    10    11    1
    13    10    14    1
    14    10    31    1
    15    10    32    1
    16    11    16    1
    17    11    33    1
    18    11    34    1
    19    12    13    1
    20    12    15    1
    21    12    35    1
    22    12    36    1
    23    13    17    1
    24    13    37    1
    25    13    38    1
    26    14    19    1
    27    14    39    1
    28    14    40    1
    29    15    18    1
    30    15    41    1
    31    15    42    1
    32    16    20    1
    33    16    43    1
    34    16    44    1
    35    17    21    1
    36    17    45    1
    37    17    46    1
    38    18    22    1
    39    18    47    1
    40    18    48    1
    41    19    23    1
    42    19    49    1
    43    19    50    1
    44    20    24    1
    45    20    51    1
    46    20    52    1
    47    21    25    1
    48    21    53    1
    49    21    54    1
    50    22    26    1
    51    22    55    1
    52    22    56    1
    53    23    27    1
    54    23    57    1
    55    23    58    1
    56    24    25    2
    57    24    59    1
    58    25    60    1
    59    26    61    1
    60    26    62    1
    61    26    63    1
    62    28    29    1
    63    28    64    1
    64    28    65    1
    65    29    30    1
    66    29    66    1
    67    30    67    1
    68    30    68    1
