@<TRIPOS>MOLECULE
IMPHY000590
 51 55 0 0 0
SMALL
GASTEIGER

@<TRIPOS>ATOM
      1 O           2.9180    0.8177    0.0000 O.3     1  UNL1       -0.4830
      2 O           2.0000   -1.7308    0.0000 O.3     1  UNL1       -0.4879
      3 O           4.6744    3.9719    0.0000 O.3     1  UNL1       -0.4815
      4 O           5.5161   -0.6823    0.0000 O.2     1  UNL1       -0.2912
      5 O           5.6405   -3.8193    0.0000 O.3     1  UNL1       -0.4914
      6 O           3.8372   -4.8790    0.0000 O.3     1  UNL1       -0.4913
      7 C           3.7841   -0.6823    0.0000 C.3     1  UNL1        0.0908
      8 C           2.9180   -0.1823    0.0000 C.3     1  UNL1        0.1479
      9 C           3.8001   -1.7238    0.0000 C.ar    1  UNL1        0.0122
     10 C           2.0080   -0.6892    0.0000 C.3     1  UNL1        0.1273
     11 C           4.6501   -0.1823    0.0000 C.2     1  UNL1        0.1778
     12 C           3.7841    1.3177    0.0000 C.ar    1  UNL1        0.1422
     13 C           4.6501    0.8177    0.0000 C.ar    1  UNL1        0.0606
     14 C           2.9021   -2.2516    0.0000 C.ar    1  UNL1        0.1283
     15 C           3.7680    2.3592    0.0000 C.ar    1  UNL1        0.0588
     16 C           4.7520   -2.2444    0.0000 C.ar    1  UNL1       -0.0088
     17 C           3.7348    4.5144    0.0000 C.3     1  UNL1        0.1235
     18 C           4.6660    2.8870    0.0000 C.ar    1  UNL1        0.1324
     19 C           5.5601    1.3245    0.0000 C.ar    1  UNL1       -0.0442
     20 C           2.8937   -3.3365    0.0000 C.ar    1  UNL1        0.0257
     21 C           2.8161    2.8798    0.0000 C.2     1  UNL1       -0.0478
     22 C           5.5681    2.3661    0.0000 C.ar    1  UNL1       -0.0184
     23 C           2.7993    3.9647    0.0000 C.2     1  UNL1       -0.0408
     24 C           4.7688   -3.3293    0.0000 C.ar    1  UNL1        0.1620
     25 C           3.8334   -3.8790    0.0000 C.ar    1  UNL1        0.1650
     26 C           3.2314    5.3785    0.0000 C.3     1  UNL1       -0.0215
     27 C           4.2314    5.3824    0.0000 C.3     1  UNL1       -0.0215
     28 C           5.6521   -4.8192    0.0000 C.3     1  UNL1        0.0790
     29 C           2.9731   -5.3824    0.0000 C.3     1  UNL1        0.0790
     30 H           4.5234   -1.1016    0.0000 H       1  UNL1        0.0468
     31 H           2.1852    0.2484    0.0000 H       1  UNL1        0.0778
     32 H           1.8035   -0.1039    0.0000 H       1  UNL1        0.0734
     33 H           1.3964   -0.7905    0.0000 H       1  UNL1        0.0734
     34 H           5.2829   -1.9242    0.0000 H       1  UNL1        0.0659
     35 H           6.0934    1.0084    0.0000 H       1  UNL1        0.0627
     36 H           2.2852    2.5595    0.0000 H       1  UNL1        0.0624
     37 H           2.3556   -3.6445    0.0000 H       1  UNL1        0.0692
     38 H           6.1062    2.6741    0.0000 H       1  UNL1        0.0654
     39 H           2.2589    4.2685    0.0000 H       1  UNL1        0.0611
     40 H           4.7696    5.0744    0.0000 H       1  UNL1        0.0271
     41 H           4.5394    5.9205    0.0000 H       1  UNL1        0.0271
     42 H           3.6933    5.6903    0.0000 H       1  UNL1        0.0271
     43 H           3.7672    5.6906    0.0000 H       1  UNL1        0.0271
     44 H           2.9194    5.9142    0.0000 H       1  UNL1        0.0271
     45 H           2.6957    5.0664    0.0000 H       1  UNL1        0.0271
     46 H           5.0321   -4.8264    0.0000 H       1  UNL1        0.0660
     47 H           5.6592   -5.4392    0.0000 H       1  UNL1        0.0660
     48 H           6.2720   -4.8120    0.0000 H       1  UNL1        0.0660
     49 H           2.6610   -4.8466    0.0000 H       1  UNL1        0.0660
     50 H           2.4374   -5.6944    0.0000 H       1  UNL1        0.0660
     51 H           3.2852   -5.9181    0.0000 H       1  UNL1        0.0660
@<TRIPOS>BOND
     1     1     8    1
     2     1    12    1
     3     2    10    1
     4     2    14    1
     5     3    17    1
     6     3    18    1
     7     4    11    2
     8     5    24    1
     9     5    28    1
    10     6    25    1
    11     6    29    1
    12     7     8    1
    13     7     9    1
    14     7    11    1
    15     7    30    1
    16     8    10    1
    17     8    31    1
    18     9    14   ar
    19     9    16   ar
    20    10    32    1
    21    10    33    1
    22    11    13    1
    23    12    13   ar
    24    12    15   ar
    25    13    19   ar
    26    14    20   ar
    27    15    18   ar
    28    15    21    1
    29    16    24   ar
    30    16    34    1
    31    17    23    1
    32    17    26    1
    33    17    27    1
    34    18    22   ar
    35    19    22   ar
    36    19    35    1
    37    20    25   ar
    38    20    37    1
    39    21    23    2
    40    21    36    1
    41    22    38    1
    42    23    39    1
    43    24    25   ar
    44    26    43    1
    45    26    44    1
    46    26    45    1
    47    27    40    1
    48    27    41    1
    49    27    42    1
    50    28    46    1
    51    28    47    1
    52    28    48    1
    53    29    49    1
    54    29    50    1
    55    29    51    1
