@<TRIPOS>MOLECULE
IMPHY002508
 104 108 0 0 0
SMALL
GASTEIGER

@<TRIPOS>ATOM
      1 O           7.0776   -0.4647    0.0000 O.3     1  UNL1       -0.3557
      2 O           8.2778    1.0065    0.0000 O.3     1  UNL1       -0.4580
      3 O           6.8944    2.6940    0.0000 O.3     1  UNL1       -0.4569
      4 O           6.3243   -0.8475    0.0000 O.3     1  UNL1       -0.3820
      5 O           8.6816    2.2625    0.0000 O.3     1  UNL1       -0.4573
      6 O           5.3236    2.6384    0.0000 O.3     1  UNL1       -0.4567
      7 O           3.7195   -0.3392    0.0000 O.3     1  UNL1       -0.4543
      8 O           3.7319    1.6733    0.0000 O.3     1  UNL1       -0.4539
      9 O           6.5740    3.0761    0.0000 O.3     1  UNL1       -0.4639
     10 O           7.9981   -1.8445    0.0000 O.3     1  UNL1       -0.4582
     11 O           9.7844   -0.2028    0.0000 O.2     1  UNL1       -0.2512
     12 O           8.5878    3.0583    0.0000 O.2     1  UNL1       -0.2512
     13 O          10.3910    1.9829    0.0000 O.2     1  UNL1       -0.2512
     14 O           3.6121    2.3722    0.0000 O.2     1  UNL1       -0.2512
     15 O           2.8464   -1.8248    0.0000 O.2     1  UNL1       -0.2505
     16 O           2.8473    0.1842    0.0000 O.2     1  UNL1       -0.2512
     17 O           6.4794    4.8056    0.0000 O.2     1  UNL1       -0.2512
     18 O           8.8570   -3.3384    0.0000 O.2     1  UNL1       -0.2449
     19 N           5.4195   -3.3168    0.0000 N.ar    1  UNL1       -0.2591
     20 C           6.3263    0.1500    0.0000 C.3     1  UNL1        0.1549
     21 C           6.3385    1.1206    0.0000 C.3     1  UNL1        0.1207
     22 C           8.4586    0.6088    0.0000 C.3     1  UNL1        0.0715
     23 C           7.3178    0.7267    0.0000 C.3     1  UNL1        0.1446
     24 C           5.4522   -0.3581    0.0000 C.3     1  UNL1        0.1367
     25 C           7.1048    1.7163    0.0000 C.3     1  UNL1        0.1553
     26 C           8.0266   -0.2604    0.0000 C.3     1  UNL1        0.1114
     27 C           8.0484    1.4885    0.0000 C.3     1  UNL1        0.1496
     28 C           5.4773    1.6503    0.0000 C.3     1  UNL1        0.1584
     29 C           4.5790    0.1516    0.0000 C.3     1  UNL1        0.1742
     30 C           4.5917    1.1626    0.0000 C.3     1  UNL1        0.1799
     31 C           6.2838    2.1191    0.0000 C.3     1  UNL1        0.1080
     32 C           4.5924   -0.8686    0.0000 C.3     1  UNL1       -0.0295
     33 C           8.6222   -1.0268    0.0000 C.3     1  UNL1        0.1219
     34 C           8.9957   -0.5072    0.0000 C.3     1  UNL1       -0.0321
     35 C           9.1931    0.6037    0.0000 C.2     1  UNL1        0.3043
     36 C           7.6359    3.3649    0.0000 C.2     1  UNL1        0.3043
     37 C           9.6170    2.6161    0.0000 C.2     1  UNL1        0.3043
     38 C           4.3910    2.9994    0.0000 C.2     1  UNL1        0.3043
     39 C           3.7148   -1.3289    0.0000 C.2     1  UNL1        0.3104
     40 C           2.8597    1.1841    0.0000 C.2     1  UNL1        0.3044
     41 C           6.0274    3.9135    0.0000 C.2     1  UNL1        0.3040
     42 C           9.9996    1.1949    0.0000 C.3     1  UNL1        0.0332
     43 C           4.5695   -1.8280    0.0000 C.3     1  UNL1        0.0540
     44 C           7.9934   -2.8342    0.0000 C.2     1  UNL1        0.3410
     45 C           7.4256    4.3426    0.0000 C.3     1  UNL1        0.0332
     46 C           9.7784    3.6030    0.0000 C.3     1  UNL1        0.0332
     47 C           4.2373    3.9875    0.0000 C.3     1  UNL1        0.0332
     48 C           2.0000    1.6948    0.0000 C.3     1  UNL1        0.0332
     49 C           5.0289    3.8589    0.0000 C.3     1  UNL1        0.0332
     50 C           5.4290   -1.3372    0.0000 C.3     1  UNL1       -0.0349
     51 C           7.1338   -3.3250    0.0000 C.ar    1  UNL1        0.0802
     52 C           3.9778   -2.6341    0.0000 C.3     1  UNL1       -0.0523
     53 C           6.2838   -1.8362    0.0000 C.3     1  UNL1       -0.0089
     54 C           6.2791   -2.8260    0.0000 C.ar    1  UNL1        0.0552
     55 C           7.1291   -4.3148    0.0000 C.ar    1  UNL1       -0.0446
     56 C           6.2696   -4.8056    0.0000 C.ar    1  UNL1       -0.0428
     57 C           5.4148   -4.3066    0.0000 C.ar    1  UNL1        0.0279
     58 H           9.0130    1.2531    0.0000 H       1  UNL1        0.0404
     59 H           6.8552    1.1396    0.0000 H       1  UNL1        0.0769
     60 H           7.5486    2.1492    0.0000 H       1  UNL1        0.0781
     61 H           8.6636    1.4114    0.0000 H       1  UNL1        0.0777
     62 H           4.9208    1.9236    0.0000 H       1  UNL1        0.0782
     63 H           3.8466    0.5830    0.0000 H       1  UNL1        0.0803
     64 H           4.0509    0.8593    0.0000 H       1  UNL1        0.0811
     65 H           5.8103    2.5193    0.0000 H       1  UNL1        0.0706
     66 H           6.8994    2.0450    0.0000 H       1  UNL1        0.0706
     67 H           4.2759   -0.3355    0.0000 H       1  UNL1        0.0259
     68 H           4.0592   -1.1851    0.0000 H       1  UNL1        0.0259
     69 H           4.9089   -1.4017    0.0000 H       1  UNL1        0.0259
     70 H           9.0809   -1.4439    0.0000 H       1  UNL1        0.0727
     71 H           9.0773   -0.6056    0.0000 H       1  UNL1        0.0727
     72 H           8.8427   -1.1080    0.0000 H       1  UNL1        0.0259
     73 H           9.5965   -0.6602    0.0000 H       1  UNL1        0.0259
     74 H           9.1487    0.0936    0.0000 H       1  UNL1        0.0259
     75 H           6.8041   -1.2402    0.0000 H       1  UNL1        0.2104
     76 H          10.3662    0.6949    0.0000 H       1  UNL1        0.0342
     77 H          10.4996    1.5615    0.0000 H       1  UNL1        0.0342
     78 H           9.6330    1.6950    0.0000 H       1  UNL1        0.0342
     79 H           4.9821   -2.2907    0.0000 H       1  UNL1        0.0411
     80 H           8.0317    4.4730    0.0000 H       1  UNL1        0.0342
     81 H           7.2952    4.9487    0.0000 H       1  UNL1        0.0342
     82 H           6.8194    4.2121    0.0000 H       1  UNL1        0.0342
     83 H          10.3903    3.5029    0.0000 H       1  UNL1        0.0342
     84 H           9.8785    4.2149    0.0000 H       1  UNL1        0.0342
     85 H           9.1665    3.7031    0.0000 H       1  UNL1        0.0342
     86 H           4.8499    4.0828    0.0000 H       1  UNL1        0.0342
     87 H           4.1420    4.6001    0.0000 H       1  UNL1        0.0342
     88 H           3.6246    3.8922    0.0000 H       1  UNL1        0.0342
     89 H           2.3166    2.2279    0.0000 H       1  UNL1        0.0342
     90 H           1.4670    2.0115    0.0000 H       1  UNL1        0.0342
     91 H           1.6834    1.1618    0.0000 H       1  UNL1        0.0342
     92 H           4.9951    4.4780    0.0000 H       1  UNL1        0.0342
     93 H           4.4099    3.8250    0.0000 H       1  UNL1        0.0342
     94 H           5.0628    3.2398    0.0000 H       1  UNL1        0.0342
     95 H           5.8299   -0.8642    0.0000 H       1  UNL1        0.0277
     96 H           5.0328   -0.8603    0.0000 H       1  UNL1        0.0277
     97 H           3.4780   -2.2672    0.0000 H       1  UNL1        0.0238
     98 H           3.6109   -3.1338    0.0000 H       1  UNL1        0.0238
     99 H           4.4776   -3.0010    0.0000 H       1  UNL1        0.0238
    100 H           6.8939   -1.9468    0.0000 H       1  UNL1        0.0329
    101 H           6.4987   -1.2546    0.0000 H       1  UNL1        0.0329
    102 H           7.6645   -4.6274    0.0000 H       1  UNL1        0.0627
    103 H           6.2666   -5.4256    0.0000 H       1  UNL1        0.0633
    104 H           4.8764   -4.6140    0.0000 H       1  UNL1        0.0829
@<TRIPOS>BOND
     1    20     1    1
     2     1    26    1
     3    23     2    1
     4     2    35    1
     5    25     3    1
     6     3    36    1
     7    24     4    1
     8     4    75    1
     9    27     5    1
    10     5    37    1
    11    28     6    1
    12     6    38    1
    13     7    29    1
    14     7    39    1
    15    30     8    1
    16     8    40    1
    17     9    31    1
    18     9    41    1
    19    10    33    1
    20    10    44    1
    21    11    35    2
    22    12    36    2
    23    13    37    2
    24    14    38    2
    25    15    39    2
    26    16    40    2
    27    17    41    2
    28    18    44    2
    29    19    54   ar
    30    19    57   ar
    31    20    21    1
    32    20    23    1
    33    20    24    1
    34    21    25    1
    35    21    28    1
    36    21    31    1
    37    22    23    1
    38    22    26    1
    39    22    27    1
    40    22    58    1
    41    23    59    1
    42    24    29    1
    43    24    32    1
    44    25    27    1
    45    25    60    1
    46    26    33    1
    47    26    34    1
    48    27    61    1
    49    28    30    1
    50    28    62    1
    51    29    30    1
    52    29    63    1
    53    30    64    1
    54    31    65    1
    55    31    66    1
    56    32    67    1
    57    32    68    1
    58    32    69    1
    59    33    70    1
    60    33    71    1
    61    34    72    1
    62    34    73    1
    63    34    74    1
    64    35    42    1
    65    36    45    1
    66    37    46    1
    67    38    47    1
    68    39    43    1
    69    40    48    1
    70    41    49    1
    71    42    76    1
    72    42    77    1
    73    42    78    1
    74    43    50    1
    75    43    52    1
    76    43    79    1
    77    44    51    1
    78    45    80    1
    79    45    81    1
    80    45    82    1
    81    46    83    1
    82    46    84    1
    83    46    85    1
    84    47    86    1
    85    47    87    1
    86    47    88    1
    87    48    89    1
    88    48    90    1
    89    48    91    1
    90    49    92    1
    91    49    93    1
    92    49    94    1
    93    50    53    1
    94    50    95    1
    95    50    96    1
    96    51    54   ar
    97    51    55   ar
    98    52    97    1
    99    52    98    1
   100    52    99    1
   101    53    54    1
   102    53   100    1
   103    53   101    1
   104    55    56   ar
   105    55   102    1
   106    56    57   ar
   107    56   103    1
   108    57   104    1
