@<TRIPOS>MOLECULE
IMPHY005364
 26 26 0 0 0
SMALL
GASTEIGER

@<TRIPOS>ATOM
      1 O           2.0000    0.5670    0.0000 O.2     1  UNL1       -0.2966
      2 C           3.7320    0.5670    0.0000 C.3     1  UNL1        0.0237
      3 C           4.5981    0.0670    0.0000 C.3     1  UNL1       -0.0411
      4 C           2.8660   -0.9330    0.0000 C.3     1  UNL1        0.0152
      5 C           4.5981   -0.9330    0.0000 C.3     1  UNL1       -0.0516
      6 C           3.7320   -1.4330    0.0000 C.3     1  UNL1       -0.0437
      7 C           2.8660    0.0670    0.0000 C.2     1  UNL1        0.1417
      8 C           4.2320    1.4330    0.0000 C.3     1  UNL1       -0.0531
      9 C           3.2320    1.4330    0.0000 C.3     1  UNL1       -0.0531
     10 C           2.0000   -1.4330    0.0000 C.3     1  UNL1       -0.0557
     11 H           5.2087   -0.0407    0.0000 H       1  UNL1        0.0274
     12 H           4.8101    0.6496    0.0000 H       1  UNL1        0.0274
     13 H           2.8660   -1.5530    0.0000 H       1  UNL1        0.0375
     14 H           4.8101   -1.5156    0.0000 H       1  UNL1        0.0266
     15 H           5.2087   -0.8254    0.0000 H       1  UNL1        0.0266
     16 H           3.3335   -1.9080    0.0000 H       1  UNL1        0.0272
     17 H           4.1306   -1.9080    0.0000 H       1  UNL1        0.0272
     18 H           4.7690    1.1230    0.0000 H       1  UNL1        0.0239
     19 H           4.5420    1.9700    0.0000 H       1  UNL1        0.0239
     20 H           3.6951    1.7430    0.0000 H       1  UNL1        0.0239
     21 H           3.7690    1.7430    0.0000 H       1  UNL1        0.0239
     22 H           2.9220    1.9700    0.0000 H       1  UNL1        0.0239
     23 H           2.6951    1.1230    0.0000 H       1  UNL1        0.0239
     24 H           1.6900   -0.8961    0.0000 H       1  UNL1        0.0236
     25 H           1.4631   -1.7430    0.0000 H       1  UNL1        0.0236
     26 H           2.3100   -1.9700    0.0000 H       1  UNL1        0.0236
@<TRIPOS>BOND
     1     1     7    2
     2     2     3    1
     3     2     7    1
     4     2     8    1
     5     2     9    1
     6     3     5    1
     7     3    11    1
     8     3    12    1
     9     4     6    1
    10     4     7    1
    11     4    10    1
    12     4    13    1
    13     5     6    1
    14     5    14    1
    15     5    15    1
    16     6    16    1
    17     6    17    1
    18     8    18    1
    19     8    19    1
    20     8    20    1
    21     9    21    1
    22     9    22    1
    23     9    23    1
    24    10    24    1
    25    10    25    1
    26    10    26    1
