@<TRIPOS>MOLECULE
IMPHY017421
 35 36 0 0 0
SMALL
GASTEIGER

@<TRIPOS>ATOM
      1 C           4.5981    2.0000    0.0000 C.3     1  UNL1       -0.0242
      2 C           4.5981    1.0000    0.0000 C.3     1  UNL1       -0.0308
      3 C           5.4641    2.5000    0.0000 C.ar    1  UNL1       -0.0471
      4 C           2.8660   -1.0000    0.0000 C.3     1  UNL1       -0.0095
      5 C           3.7320    0.5000    0.0000 C.2     1  UNL1       -0.0873
      6 C           3.7320   -0.5000    0.0000 C.2     1  UNL1       -0.0836
      7 C           2.8660   -2.0000    0.0000 C.ar    1  UNL1       -0.0436
      8 C           6.3301    2.0000    0.0000 C.ar    1  UNL1       -0.0586
      9 C           5.4641    3.5000    0.0000 C.ar    1  UNL1       -0.0586
     10 C           3.7320   -2.5000    0.0000 C.ar    1  UNL1       -0.0583
     11 C           2.0000   -2.5000    0.0000 C.ar    1  UNL1       -0.0583
     12 C           7.1962    2.5000    0.0000 C.ar    1  UNL1       -0.0615
     13 C           6.3301    4.0000    0.0000 C.ar    1  UNL1       -0.0615
     14 C           7.1962    3.5000    0.0000 C.ar    1  UNL1       -0.0617
     15 C           3.7320   -3.5000    0.0000 C.ar    1  UNL1       -0.0615
     16 C           2.0000   -3.5000    0.0000 C.ar    1  UNL1       -0.0615
     17 C           2.8660   -4.0000    0.0000 C.ar    1  UNL1       -0.0617
     18 H           4.3860    2.5826    0.0000 H       1  UNL1        0.0316
     19 H           3.9875    1.8923    0.0000 H       1  UNL1        0.0316
     20 H           4.8101    0.4174    0.0000 H       1  UNL1        0.0310
     21 H           5.2087    1.1077    0.0000 H       1  UNL1        0.0310
     22 H           2.6540   -0.4174    0.0000 H       1  UNL1        0.0356
     23 H           2.2554   -1.1077    0.0000 H       1  UNL1        0.0356
     24 H           3.1951    0.8100    0.0000 H       1  UNL1        0.0569
     25 H           4.2690   -0.8100    0.0000 H       1  UNL1        0.0572
     26 H           6.3301    1.3800    0.0000 H       1  UNL1        0.0620
     27 H           4.9272    3.8100    0.0000 H       1  UNL1        0.0620
     28 H           4.2690   -2.1900    0.0000 H       1  UNL1        0.0620
     29 H           1.4631   -2.1900    0.0000 H       1  UNL1        0.0620
     30 H           7.7331    2.1900    0.0000 H       1  UNL1        0.0618
     31 H           6.3301    4.6200    0.0000 H       1  UNL1        0.0618
     32 H           7.7331    3.8100    0.0000 H       1  UNL1        0.0618
     33 H           4.2690   -3.8100    0.0000 H       1  UNL1        0.0618
     34 H           1.4631   -3.8100    0.0000 H       1  UNL1        0.0618
     35 H           2.8660   -4.6200    0.0000 H       1  UNL1        0.0618
@<TRIPOS>BOND
     1     1     2    1
     2     1     3    1
     3     1    18    1
     4     1    19    1
     5     2     5    1
     6     2    20    1
     7     2    21    1
     8     3     8   ar
     9     3     9   ar
    10     4     6    1
    11     4     7    1
    12     4    22    1
    13     4    23    1
    14     5     6    2
    15     5    24    1
    16     6    25    1
    17     7    10   ar
    18     7    11   ar
    19     8    12   ar
    20     8    26    1
    21     9    13   ar
    22     9    27    1
    23    10    15   ar
    24    10    28    1
    25    11    16   ar
    26    11    29    1
    27    12    14   ar
    28    12    30    1
    29    13    14   ar
    30    13    31    1
    31    14    32    1
    32    15    17   ar
    33    15    33    1
    34    16    17   ar
    35    16    34    1
    36    17    35    1
