@<TRIPOS>MOLECULE
IMPHY008635
 41 44 0 0 0
SMALL
GASTEIGER

@<TRIPOS>ATOM
      1 O           3.9575   -1.9684    0.0000 O.3     1  UNL1       -0.3872
      2 O           4.3957    2.4303    0.0000 O.2     1  UNL1       -0.2674
      3 N           5.7021    1.2438    0.0000 N.ar    1  UNL1       -0.3020
      4 N           7.6717   -0.4477    0.0000 N.ar    1  UNL1       -0.2449
      5 C           6.0084    0.2981    0.0000 C.ar    1  UNL1        0.0713
      6 C           6.5058    1.8288    0.0000 C.3     1  UNL1        0.0538
      7 C           7.3115    1.2466    0.0000 C.ar    1  UNL1        0.0003
      8 C           7.0025    0.2955    0.0000 C.ar    1  UNL1        0.0929
      9 C           4.3126   -0.2731    0.0000 C.ar    1  UNL1       -0.0091
     10 C           5.3269   -0.4814    0.0000 C.ar    1  UNL1       -0.0299
     11 C           3.9934    0.7120    0.0000 C.ar    1  UNL1        0.0197
     12 C           4.6929    1.4755    0.0000 C.ar    1  UNL1        0.2553
     13 C           3.6457   -1.0182    0.0000 C.3     1  UNL1        0.0804
     14 C           8.2897    1.4545    0.0000 C.ar    1  UNL1       -0.0456
     15 C           2.6669   -0.8132    0.0000 C.3     1  UNL1       -0.0255
     16 C           8.9588    0.7113    0.0000 C.ar    1  UNL1        0.0007
     17 C           8.6498   -0.2397    0.0000 C.ar    1  UNL1        0.0717
     18 C           3.0163    0.9245    0.0000 C.3     1  UNL1       -0.0342
     19 C           2.0000   -1.5584    0.0000 C.3     1  UNL1       -0.0626
     20 C           9.9742    0.9436    0.0000 C.ar    1  UNL1       -0.0526
     21 C           9.3348   -1.0245    0.0000 C.ar    1  UNL1       -0.0357
     22 C          10.6772    0.1749    0.0000 C.ar    1  UNL1       -0.0611
     23 C          10.3553   -0.8158    0.0000 C.ar    1  UNL1       -0.0597
     24 H           6.9197    2.2904    0.0000 H       1  UNL1        0.0543
     25 H           6.0903    2.2889    0.0000 H       1  UNL1        0.0543
     26 H           5.5248   -1.0690    0.0000 H       1  UNL1        0.0642
     27 H           3.2322   -1.4802    0.0000 H       1  UNL1        0.0643
     28 H           8.4813    2.0441    0.0000 H       1  UNL1        0.0628
     29 H           2.8974   -0.2377    0.0000 H       1  UNL1        0.0291
     30 H           2.1401   -0.4863    0.0000 H       1  UNL1        0.0291
     31 H           3.1481    1.5303    0.0000 H       1  UNL1        0.0279
     32 H           2.4105    1.0563    0.0000 H       1  UNL1        0.0279
     33 H           2.8845    0.3187    0.0000 H       1  UNL1        0.0279
     34 H           1.5380   -1.1449    0.0000 H       1  UNL1        0.0231
     35 H           1.5865   -2.0204    0.0000 H       1  UNL1        0.0231
     36 H           2.4620   -1.9719    0.0000 H       1  UNL1        0.0231
     37 H          10.1590    1.5354    0.0000 H       1  UNL1        0.0624
     38 H           9.1364   -1.6119    0.0000 H       1  UNL1        0.0639
     39 H           3.5440   -2.4303    0.0000 H       1  UNL1        0.2102
     40 H          11.2831    0.3061    0.0000 H       1  UNL1        0.0618
     41 H          10.7684   -1.2781    0.0000 H       1  UNL1        0.0618
@<TRIPOS>BOND
     1    13     1    1
     2     1    39    1
     3     2    12    2
     4     3     5   ar
     5     3     6    1
     6     3    12   ar
     7     4     8   ar
     8     4    17   ar
     9     5     8    1
    10     5    10   ar
    11     6     7    1
    12     6    24    1
    13     6    25    1
    14     7     8   ar
    15     7    14   ar
    16     9    10   ar
    17     9    11   ar
    18     9    13    1
    19    10    26    1
    20    11    12   ar
    21    11    18    1
    22    13    15    1
    23    13    27    1
    24    14    16   ar
    25    14    28    1
    26    15    19    1
    27    15    29    1
    28    15    30    1
    29    16    17   ar
    30    16    20   ar
    31    17    21   ar
    32    18    31    1
    33    18    32    1
    34    18    33    1
    35    19    34    1
    36    19    35    1
    37    19    36    1
    38    20    22   ar
    39    20    37    1
    40    21    23   ar
    41    21    38    1
    42    22    23   ar
    43    22    40    1
    44    23    41    1
