@<TRIPOS>MOLECULE
IMPHY015437
 36 35 0 0 0
SMALL
GASTEIGER

@<TRIPOS>ATOM
      1 O           6.3301   -0.5950    0.0000 O.3     1  UNL1       -0.3918
      2 C           6.3301    0.4050    0.0000 C.3     1  UNL1        0.0553
      3 C           7.1962    0.9050    0.0000 C.3     1  UNL1       -0.0269
      4 C           5.4641    0.9050    0.0000 C.3     1  UNL1       -0.0269
      5 C           8.0622    0.4050    0.0000 C.3     1  UNL1       -0.0507
      6 C           4.5981    0.4050    0.0000 C.3     1  UNL1       -0.0507
      7 C           8.9282    0.9050    0.0000 C.3     1  UNL1       -0.0532
      8 C           3.7320    0.9050    0.0000 C.3     1  UNL1       -0.0532
      9 C           9.7942    0.4050    0.0000 C.3     1  UNL1       -0.0559
     10 C           2.8660    0.4050    0.0000 C.3     1  UNL1       -0.0559
     11 C          10.6603    0.9050    0.0000 C.3     1  UNL1       -0.0653
     12 C           2.0000    0.9050    0.0000 C.3     1  UNL1       -0.0653
     13 H           6.8671    0.0950    0.0000 H       1  UNL1        0.0593
     14 H           7.5947    1.3800    0.0000 H       1  UNL1        0.0290
     15 H           6.7976    1.3800    0.0000 H       1  UNL1        0.0290
     16 H           5.8626    1.3800    0.0000 H       1  UNL1        0.0290
     17 H           5.0656    1.3800    0.0000 H       1  UNL1        0.0290
     18 H           7.6636   -0.0699    0.0000 H       1  UNL1        0.0266
     19 H           8.4607   -0.0699    0.0000 H       1  UNL1        0.0266
     20 H           4.1996   -0.0699    0.0000 H       1  UNL1        0.0266
     21 H           4.9966   -0.0699    0.0000 H       1  UNL1        0.0266
     22 H           9.3267    1.3800    0.0000 H       1  UNL1        0.0265
     23 H           8.5297    1.3800    0.0000 H       1  UNL1        0.0265
     24 H           4.1306    1.3800    0.0000 H       1  UNL1        0.0265
     25 H           3.3335    1.3800    0.0000 H       1  UNL1        0.0265
     26 H           9.3957   -0.0699    0.0000 H       1  UNL1        0.0263
     27 H          10.1928   -0.0699    0.0000 H       1  UNL1        0.0263
     28 H           2.4675   -0.0699    0.0000 H       1  UNL1        0.0263
     29 H           3.2646   -0.0699    0.0000 H       1  UNL1        0.0263
     30 H           5.7932   -0.9050    0.0000 H       1  UNL1        0.2098
     31 H          10.9703    0.3681    0.0000 H       1  UNL1        0.0230
     32 H          11.1972    1.2150    0.0000 H       1  UNL1        0.0230
     33 H          10.3503    1.4419    0.0000 H       1  UNL1        0.0230
     34 H           2.3100    1.4419    0.0000 H       1  UNL1        0.0230
     35 H           1.4631    1.2150    0.0000 H       1  UNL1        0.0230
     36 H           1.6900    0.3681    0.0000 H       1  UNL1        0.0230
@<TRIPOS>BOND
     1     1     2    1
     2     1    30    1
     3     2     3    1
     4     2     4    1
     5     2    13    1
     6     3     5    1
     7     3    14    1
     8     3    15    1
     9     4     6    1
    10     4    16    1
    11     4    17    1
    12     5     7    1
    13     5    18    1
    14     5    19    1
    15     6     8    1
    16     6    20    1
    17     6    21    1
    18     7     9    1
    19     7    22    1
    20     7    23    1
    21     8    10    1
    22     8    24    1
    23     8    25    1
    24     9    11    1
    25     9    26    1
    26     9    27    1
    27    10    12    1
    28    10    28    1
    29    10    29    1
    30    11    31    1
    31    11    32    1
    32    11    33    1
    33    12    34    1
    34    12    35    1
    35    12    36    1
