@<TRIPOS>MOLECULE
IMPHY002076
 26 27 0 0 0
SMALL
GASTEIGER

@<TRIPOS>ATOM
      1 O           5.5301   -1.4827    0.0000 O.2     1  UNL1       -0.4219
      2 O           7.2622   -1.4827    0.0000 O.2     1  UNL1       -0.2449
      3 C           4.6641    0.0173    0.0000 C.ar    1  UNL1        0.0208
      4 C           5.5301    0.5173    0.0000 C.ar    1  UNL1       -0.0301
      5 C           4.6641   -0.9827    0.0000 C.ar    1  UNL1        0.1396
      6 C           6.3961    0.0173    0.0000 C.ar    1  UNL1        0.0375
      7 C           3.7702    0.5520    0.0000 C.ar    1  UNL1       -0.0506
      8 C           3.7702   -1.5173    0.0000 C.ar    1  UNL1       -0.0157
      9 C           2.8641   -1.0035    0.0000 C.ar    1  UNL1       -0.0469
     10 C           5.5301    1.5173    0.0000 C.3     1  UNL1       -0.0386
     11 C           2.8641    0.0381    0.0000 C.ar    1  UNL1       -0.0580
     12 C           6.3961   -0.9827    0.0000 C.ar    1  UNL1        0.3404
     13 C           7.2622    0.5173    0.0000 C.3     1  UNL1       -0.0327
     14 C           2.0000   -1.5068    0.0000 C.3     1  UNL1       -0.0396
     15 H           3.7773    1.1720    0.0000 H       1  UNL1        0.0625
     16 H           3.7773   -2.1373    0.0000 H       1  UNL1        0.0657
     17 H           6.1501    1.5173    0.0000 H       1  UNL1        0.0278
     18 H           5.5301    2.1373    0.0000 H       1  UNL1        0.0278
     19 H           4.9101    1.5173    0.0000 H       1  UNL1        0.0278
     20 H           2.3284    0.3502    0.0000 H       1  UNL1        0.0620
     21 H           7.5722   -0.0196    0.0000 H       1  UNL1        0.0280
     22 H           7.7991    0.8273    0.0000 H       1  UNL1        0.0280
     23 H           6.9522    1.0543    0.0000 H       1  UNL1        0.0280
     24 H           1.6879   -0.9711    0.0000 H       1  UNL1        0.0278
     25 H           1.4643   -1.8189    0.0000 H       1  UNL1        0.0278
     26 H           2.3121   -2.0426    0.0000 H       1  UNL1        0.0278
@<TRIPOS>BOND
     1     1     5   ar
     2     1    12   ar
     3     2    12    2
     4     3     4   ar
     5     3     5   ar
     6     3     7   ar
     7     4     6   ar
     8     4    10    1
     9     5     8   ar
    10     6    12   ar
    11     6    13    1
    12     7    11   ar
    13     7    15    1
    14     8     9   ar
    15     8    16    1
    16     9    11   ar
    17     9    14    1
    18    10    17    1
    19    10    18    1
    20    10    19    1
    21    11    20    1
    22    13    21    1
    23    13    22    1
    24    13    23    1
    25    14    24    1
    26    14    25    1
    27    14    26    1
