@<TRIPOS>MOLECULE
IMPHY000095
 45 47 0 0 0
SMALL
GASTEIGER

@<TRIPOS>ATOM
      1 O           5.1350   -1.1176    0.0000 O.3     1  UNL1       -0.3404
      2 O           6.8671   -1.1176    0.0000 O.3     1  UNL1       -0.3024
      3 O           5.1350   -4.1175    0.0000 O.3     1  UNL1       -0.3864
      4 O           3.4030   -3.1176    0.0000 O.3     1  UNL1       -0.3865
      5 O           6.8671   -3.1176    0.0000 O.3     1  UNL1       -0.3841
      6 O           2.5369   -1.6176    0.0000 O.3     1  UNL1       -0.3924
      7 O           7.7331    0.3825    0.0000 O.3     1  UNL1       -0.4524
      8 O           5.1350   -0.1175    0.0000 O.2     1  UNL1       -0.2662
      9 O           5.1350    1.8824    0.0000 O.3     1  UNL1       -0.2874
     10 O           9.5191    3.4276    0.0000 O.3     1  UNL1       -0.4950
     11 N           6.0010    1.3824    0.0000 N.am    1  UNL1       -0.1425
     12 C           5.1350   -3.1176    0.0000 C.3     1  UNL1        0.1141
     13 C           4.2690   -2.6176    0.0000 C.3     1  UNL1        0.1119
     14 C           6.0010   -2.6176    0.0000 C.3     1  UNL1        0.1343
     15 C           4.2690   -1.6176    0.0000 C.3     1  UNL1        0.1130
     16 C           6.0010   -1.6176    0.0000 C.3     1  UNL1        0.1923
     17 C           3.4030   -1.1176    0.0000 C.3     1  UNL1        0.0730
     18 C           6.8671   -0.1175    0.0000 C.3     1  UNL1        0.2839
     19 C           6.0010    0.3825    0.0000 C.2     1  UNL1        0.3117
     20 C           7.7331    1.3824    0.0000 C.ar    1  UNL1        0.1515
     21 C           6.8671    1.8824    0.0000 C.ar    1  UNL1        0.1062
     22 C           8.6431    1.8893    0.0000 C.ar    1  UNL1        0.0238
     23 C           6.8510    2.9240    0.0000 C.ar    1  UNL1       -0.0310
     24 C           8.6511    2.9309    0.0000 C.ar    1  UNL1        0.1237
     25 C           7.7490    3.4517    0.0000 C.ar    1  UNL1       -0.0179
     26 C           9.5229    4.4276    0.0000 C.3     1  UNL1        0.0788
     27 H           4.5981   -3.4276    0.0000 H       1  UNL1        0.0648
     28 H           4.2690   -3.2376    0.0000 H       1  UNL1        0.0647
     29 H           6.0010   -3.2376    0.0000 H       1  UNL1        0.0671
     30 H           4.2690   -0.9975    0.0000 H       1  UNL1        0.0647
     31 H           6.0010   -0.9975    0.0000 H       1  UNL1        0.0939
     32 H           3.8015   -0.6426    0.0000 H       1  UNL1        0.0584
     33 H           3.0044   -0.6426    0.0000 H       1  UNL1        0.0584
     34 H           6.3301   -0.4275    0.0000 H       1  UNL1        0.1163
     35 H           4.5981   -4.4276    0.0000 H       1  UNL1        0.2100
     36 H           3.4030   -3.7376    0.0000 H       1  UNL1        0.2100
     37 H           6.8671   -3.7376    0.0000 H       1  UNL1        0.2101
     38 H           2.0000   -1.3076    0.0000 H       1  UNL1        0.2095
     39 H           9.1764    1.5731    0.0000 H       1  UNL1        0.0691
     40 H           6.3105    3.2277    0.0000 H       1  UNL1        0.0639
     41 H           7.7466    4.0717    0.0000 H       1  UNL1        0.0655
     42 H           5.1350    2.5024    0.0000 H       1  UNL1        0.2421
     43 H          10.1429    4.4252    0.0000 H       1  UNL1        0.0660
     44 H           9.5253    5.0475    0.0000 H       1  UNL1        0.0660
     45 H           8.9029    4.4299    0.0000 H       1  UNL1        0.0660
@<TRIPOS>BOND
     1     1    15    1
     2     1    16    1
     3    16     2    1
     4    18     2    1
     5    12     3    1
     6     3    35    1
     7    13     4    1
     8     4    36    1
     9    14     5    1
    10     5    37    1
    11     6    17    1
    12     6    38    1
    13     7    18    1
    14     7    20    1
    15     8    19    2
    16     9    11    1
    17     9    42    1
    18    10    24    1
    19    10    26    1
    20    11    19   am
    21    11    21    1
    22    12    13    1
    23    12    14    1
    24    12    27    1
    25    13    15    1
    26    13    28    1
    27    14    16    1
    28    14    29    1
    29    15    17    1
    30    15    30    1
    31    16    31    1
    32    17    32    1
    33    17    33    1
    34    18    19    1
    35    18    34    1
    36    20    21   ar
    37    20    22   ar
    38    21    23   ar
    39    22    24   ar
    40    22    39    1
    41    23    25   ar
    42    23    40    1
    43    24    25   ar
    44    25    41    1
    45    26    43    1
    46    26    44    1
    47    26    45    1
