@<TRIPOS>MOLECULE
IMPHY000775
 22 22 0 0 0
SMALL
GASTEIGER

@<TRIPOS>ATOM
      1 O           2.0000    0.3450    0.0000 O.2     1  UNL1       -0.2702
      2 O           4.5981    2.8450    0.0000 O.3     1  UNL1       -0.4795
      3 O           5.4641    1.3450    0.0000 O.2     1  UNL1       -0.2492
      4 N           3.7320    0.3450    0.0000 N.am    1  UNL1       -0.3009
      5 C           2.8660   -1.1550    0.0000 C.ar    1  UNL1        0.0367
      6 C           2.8660   -0.1550    0.0000 C.2     1  UNL1        0.2445
      7 C           3.7320    1.3450    0.0000 C.3     1  UNL1        0.1091
      8 C           2.0000   -1.6550    0.0000 C.ar    1  UNL1       -0.0496
      9 C           3.7320   -1.6550    0.0000 C.ar    1  UNL1       -0.0496
     10 C           2.0000   -2.6550    0.0000 C.ar    1  UNL1       -0.0610
     11 C           3.7320   -2.6550    0.0000 C.ar    1  UNL1       -0.0610
     12 C           2.8660   -3.1550    0.0000 C.ar    1  UNL1       -0.0617
     13 C           4.5981    1.8450    0.0000 C.2     1  UNL1        0.3221
     14 H           3.5200    1.9276    0.0000 H       1  UNL1        0.0577
     15 H           3.1215    1.2373    0.0000 H       1  UNL1        0.0577
     16 H           4.2690    0.0350    0.0000 H       1  UNL1        0.1496
     17 H           1.4631   -1.3450    0.0000 H       1  UNL1        0.0625
     18 H           4.2690   -1.3450    0.0000 H       1  UNL1        0.0625
     19 H           1.4631   -2.9650    0.0000 H       1  UNL1        0.0618
     20 H           4.2690   -2.9650    0.0000 H       1  UNL1        0.0618
     21 H           2.8660   -3.7750    0.0000 H       1  UNL1        0.0618
     22 H           5.1350    3.1550    0.0000 H       1  UNL1        0.2951
@<TRIPOS>BOND
     1     1     6    2
     2     2    13    1
     3     2    22    1
     4     3    13    2
     5     4     6   am
     6     4     7    1
     7     4    16    1
     8     5     6    1
     9     5     8   ar
    10     5     9   ar
    11     7    13    1
    12     7    14    1
    13     7    15    1
    14     8    10   ar
    15     8    17    1
    16     9    11   ar
    17     9    18    1
    18    10    12   ar
    19    10    19    1
    20    11    12   ar
    21    11    20    1
    22    12    21    1
