@<TRIPOS>MOLECULE
IMPHY007541
 155 164 0 0 0
SMALL
GASTEIGER

@<TRIPOS>ATOM
      1 O          10.8882    1.8693    0.0000 O.3     1  UNL1       -0.3448
      2 O          10.7717    3.0315    0.0000 O.3     1  UNL1       -0.3399
      3 O           9.4651   -6.3748    0.0000 O.3     1  UNL1       -0.3451
      4 O           9.3400    5.3420    0.0000 O.3     1  UNL1       -0.3459
      5 O           7.7331   -6.3748    0.0000 O.3     1  UNL1       -0.3405
      6 O          10.0397    6.9264    0.0000 O.3     1  UNL1       -0.3405
      7 O           9.4651   -8.3748    0.0000 O.3     1  UNL1       -0.3378
      8 O           7.7331   -9.3748    0.0000 O.3     1  UNL1       -0.3864
      9 O           7.5104    6.1500    0.0000 O.3     1  UNL1       -0.3841
     10 O           6.0010   -8.3748    0.0000 O.3     1  UNL1       -0.3401
     11 O           7.2954    8.1384    0.0000 O.3     1  UNL1       -0.3864
     12 O           8.9099    9.3188    0.0000 O.3     1  UNL1       -0.3865
     13 O          10.3312   -6.8748    0.0000 O.3     1  UNL1       -0.3431
     14 O           6.0010   -5.3748    0.0000 O.3     1  UNL1       -0.3924
     15 O          11.6542    8.1068    0.0000 O.3     1  UNL1       -0.3924
     16 O           5.1350   -6.8748    0.0000 O.3     1  UNL1       -0.3431
     17 O          11.1972   -9.3748    0.0000 O.3     1  UNL1       -0.3841
     18 O          12.9292   -8.3748    0.0000 O.3     1  UNL1       -0.3864
     19 O           4.2690   -9.3748    0.0000 O.3     1  UNL1       -0.3841
     20 O          12.9292   -6.3748    0.0000 O.3     1  UNL1       -0.3866
     21 O           2.5369   -8.3748    0.0000 O.3     1  UNL1       -0.3864
     22 O           2.5369   -6.3748    0.0000 O.3     1  UNL1       -0.3866
     23 C           9.4944   -0.1779    0.0000 C.3     1  UNL1       -0.0233
     24 C          10.3623   -0.6745    0.0000 C.3     1  UNL1       -0.0295
     25 C           9.6999    0.7947    0.0000 C.3     1  UNL1       -0.0015
     26 C          10.3662   -1.6745    0.0000 C.3     1  UNL1       -0.0306
     27 C          10.6882    0.9016    0.0000 C.3     1  UNL1        0.0660
     28 C          11.0968   -0.0046    0.0000 C.3     1  UNL1       -0.0226
     29 C           9.5021   -2.1779    0.0000 C.3     1  UNL1       -0.0285
     30 C           9.2976    1.6973    0.0000 C.3     1  UNL1        0.0160
     31 C           8.6303   -0.6812    0.0000 C.3     1  UNL1       -0.0467
     32 C          10.0305    2.3601    0.0000 C.3     1  UNL1        0.1741
     33 C           8.6342   -1.6812    0.0000 C.3     1  UNL1       -0.0486
     34 C           9.4901   -3.2194    0.0000 C.3     1  UNL1       -0.0078
     35 C           8.6264    0.3188    0.0000 C.3     1  UNL1       -0.0590
     36 C          11.2781   -2.1779    0.0000 C.3     1  UNL1       -0.0311
     37 C          10.3901   -3.7437    0.0000 C.2     1  UNL1       -0.0648
     38 C           9.1630    2.8575    0.0000 C.3     1  UNL1        0.0044
     39 C           8.5402   -3.7437    0.0000 C.3     1  UNL1       -0.0413
     40 C           8.3192    1.9040    0.0000 C.3     1  UNL1       -0.0572
     41 C          11.2902   -3.2194    0.0000 C.2     1  UNL1       -0.0839
     42 C          10.3622    3.9438    0.0000 C.3     1  UNL1        0.0934
     43 C           8.6260   -2.7161    0.0000 C.3     1  UNL1       -0.0556
     44 C           9.3680    3.8363    0.0000 C.3     1  UNL1       -0.0168
     45 C          10.4027   -4.8286    0.0000 C.3     1  UNL1       -0.0047
     46 C           8.5276   -4.8286    0.0000 C.3     1  UNL1       -0.0254
     47 C           9.4651   -5.3748    0.0000 C.3     1  UNL1        0.0655
     48 C          10.2547    4.9380    0.0000 C.3     1  UNL1        0.0796
     49 C          11.2745    4.3533    0.0000 C.3     1  UNL1       -0.0335
     50 C           8.5991   -6.8748    0.0000 C.3     1  UNL1        0.1886
     51 C           9.2324    6.3362    0.0000 C.3     1  UNL1        0.1880
     52 C           8.5991   -7.8748    0.0000 C.3     1  UNL1        0.1406
     53 C           7.7331   -8.3748    0.0000 C.3     1  UNL1        0.1148
     54 C           8.3177    6.7402    0.0000 C.3     1  UNL1        0.1341
     55 C           6.8671   -6.8748    0.0000 C.3     1  UNL1        0.1134
     56 C           6.8671   -7.8748    0.0000 C.3     1  UNL1        0.1184
     57 C           8.2102    7.7344    0.0000 C.3     1  UNL1        0.1141
     58 C           9.9322    7.9206    0.0000 C.3     1  UNL1        0.1130
     59 C           9.0174    8.3246    0.0000 C.3     1  UNL1        0.1119
     60 C           6.0010   -6.3748    0.0000 C.3     1  UNL1        0.0730
     61 C          10.3312   -7.8748    0.0000 C.3     1  UNL1        0.1884
     62 C          10.7395    8.5108    0.0000 C.3     1  UNL1        0.0730
     63 C          11.1972   -8.3748    0.0000 C.3     1  UNL1        0.1341
     64 C           5.1350   -7.8748    0.0000 C.3     1  UNL1        0.1883
     65 C          12.0632   -7.8748    0.0000 C.3     1  UNL1        0.1140
     66 C          11.1972   -6.3748    0.0000 C.3     1  UNL1        0.0873
     67 C           4.2690   -8.3748    0.0000 C.3     1  UNL1        0.1341
     68 C          12.0632   -6.8748    0.0000 C.3     1  UNL1        0.1095
     69 C           3.4030   -7.8748    0.0000 C.3     1  UNL1        0.1140
     70 C           4.2690   -6.3748    0.0000 C.3     1  UNL1        0.0873
     71 C           3.4030   -6.8748    0.0000 C.3     1  UNL1        0.1095
     72 C          11.1972   -5.3748    0.0000 C.3     1  UNL1       -0.0361
     73 C           4.2690   -5.3748    0.0000 C.3     1  UNL1       -0.0361
     74 H          11.1406   -1.0163    0.0000 H       1  UNL1        0.0310
     75 H           8.8546    0.7052    0.0000 H       1  UNL1        0.0335
     76 H          11.0974   -1.2410    0.0000 H       1  UNL1        0.0310
     77 H          11.5330    0.9948    0.0000 H       1  UNL1        0.0600
     78 H          11.4642   -0.5041    0.0000 H       1  UNL1        0.0293
     79 H          11.6321    0.3082    0.0000 H       1  UNL1        0.0293
     80 H          10.2366   -2.6057    0.0000 H       1  UNL1        0.0312
     81 H           8.9078    1.2152    0.0000 H       1  UNL1        0.0354
     82 H           8.4160   -0.0994    0.0000 H       1  UNL1        0.0271
     83 H           8.0201   -0.7912    0.0000 H       1  UNL1        0.0271
     84 H           8.0232   -1.5759    0.0000 H       1  UNL1        0.0268
     85 H           8.4244   -2.2646    0.0000 H       1  UNL1        0.0268
     86 H           8.9344    0.8569    0.0000 H       1  UNL1        0.0235
     87 H           8.0883    0.6267    0.0000 H       1  UNL1        0.0235
     88 H           8.3185   -0.2193    0.0000 H       1  UNL1        0.0235
     89 H          11.8902   -2.2769    0.0000 H       1  UNL1        0.0310
     90 H          11.4804   -1.5918    0.0000 H       1  UNL1        0.0310
     91 H           8.5728    3.0474    0.0000 H       1  UNL1        0.0318
     92 H           8.9125    2.2904    0.0000 H       1  UNL1        0.0318
     93 H           8.3379   -3.1576    0.0000 H       1  UNL1        0.0274
     94 H           7.9281   -3.8427    0.0000 H       1  UNL1        0.0274
     95 H           8.4473    2.5106    0.0000 H       1  UNL1        0.0234
     96 H           7.7125    2.0322    0.0000 H       1  UNL1        0.0234
     97 H           8.1910    1.2974    0.0000 H       1  UNL1        0.0234
     98 H          11.8295   -3.5253    0.0000 H       1  UNL1        0.0572
     99 H           8.9380   -2.1804    0.0000 H       1  UNL1        0.0238
    100 H           8.0902   -2.4040    0.0000 H       1  UNL1        0.0238
    101 H           8.3139   -3.2518    0.0000 H       1  UNL1        0.0238
    102 H           9.3662    4.4563    0.0000 H       1  UNL1        0.0295
    103 H           8.7512    3.8993    0.0000 H       1  UNL1        0.0295
    104 H          10.6185   -5.4099    0.0000 H       1  UNL1        0.0335
    105 H          11.0123   -4.7155    0.0000 H       1  UNL1        0.0335
    106 H           7.9180   -4.7155    0.0000 H       1  UNL1        0.0290
    107 H           8.3118   -5.4099    0.0000 H       1  UNL1        0.0290
    108 H          10.0027   -5.6837    0.0000 H       1  UNL1        0.0600
    109 H          10.8733    4.8966    0.0000 H       1  UNL1        0.0589
    110 H          10.4029    5.5400    0.0000 H       1  UNL1        0.0589
    111 H          11.5284    3.7876    0.0000 H       1  UNL1        0.0258
    112 H          11.8402    4.6071    0.0000 H       1  UNL1        0.0258
    113 H          11.0207    4.9189    0.0000 H       1  UNL1        0.0258
    114 H           8.5991   -6.2547    0.0000 H       1  UNL1        0.0938
    115 H           8.7320    5.9703    0.0000 H       1  UNL1        0.0937
    116 H           8.5991   -8.4948    0.0000 H       1  UNL1        0.0675
    117 H           7.1962   -8.6848    0.0000 H       1  UNL1        0.0648
    118 H           7.7505    6.9907    0.0000 H       1  UNL1        0.0671
    119 H           6.8671   -6.2547    0.0000 H       1  UNL1        0.0647
    120 H           6.3301   -7.5648    0.0000 H       1  UNL1        0.0651
    121 H           8.1435    8.3508    0.0000 H       1  UNL1        0.0648
    122 H          10.4994    7.6701    0.0000 H       1  UNL1        0.0647
    123 H           9.5179    8.6906    0.0000 H       1  UNL1        0.0647
    124 H           5.3905   -6.2671    0.0000 H       1  UNL1        0.0584
    125 H           5.7890   -6.9574    0.0000 H       1  UNL1        0.0584
    126 H          10.3312   -8.4948    0.0000 H       1  UNL1        0.0938
    127 H           7.1962   -9.6848    0.0000 H       1  UNL1        0.2100
    128 H           6.9433    6.4005    0.0000 H       1  UNL1        0.2101
    129 H          11.0846    9.0259    0.0000 H       1  UNL1        0.0584
    130 H          10.2922    8.9402    0.0000 H       1  UNL1        0.0584
    131 H           7.2288    8.7548    0.0000 H       1  UNL1        0.2100
    132 H          11.7341   -8.6848    0.0000 H       1  UNL1        0.0671
    133 H           5.1350   -8.4948    0.0000 H       1  UNL1        0.0938
    134 H           9.4104    9.6848    0.0000 H       1  UNL1        0.2100
    135 H           5.4641   -5.0648    0.0000 H       1  UNL1        0.2095
    136 H          12.6002   -7.5648    0.0000 H       1  UNL1        0.0648
    137 H          10.6603   -6.0648    0.0000 H       1  UNL1        0.0621
    138 H           3.7320   -8.6848    0.0000 H       1  UNL1        0.0671
    139 H          12.0632   -6.2547    0.0000 H       1  UNL1        0.0646
    140 H          12.1547    8.4727    0.0000 H       1  UNL1        0.2095
    141 H           2.8660   -7.5648    0.0000 H       1  UNL1        0.0648
    142 H          11.7341   -9.6848    0.0000 H       1  UNL1        0.2101
    143 H           4.8059   -6.0648    0.0000 H       1  UNL1        0.0621
    144 H           3.4030   -6.2547    0.0000 H       1  UNL1        0.0646
    145 H          11.8172   -5.3748    0.0000 H       1  UNL1        0.0255
    146 H          11.1972   -4.7547    0.0000 H       1  UNL1        0.0255
    147 H          10.5772   -5.3748    0.0000 H       1  UNL1        0.0255
    148 H          13.4662   -8.0648    0.0000 H       1  UNL1        0.2100
    149 H           3.7320   -9.6848    0.0000 H       1  UNL1        0.2101
    150 H          13.4662   -6.6848    0.0000 H       1  UNL1        0.2100
    151 H           4.8890   -5.3748    0.0000 H       1  UNL1        0.0255
    152 H           4.2690   -4.7547    0.0000 H       1  UNL1        0.0255
    153 H           3.6490   -5.3748    0.0000 H       1  UNL1        0.0255
    154 H           2.0000   -8.0648    0.0000 H       1  UNL1        0.2100
    155 H           2.5369   -5.7547    0.0000 H       1  UNL1        0.2100
@<TRIPOS>BOND
     1     1    27    1
     2    32     1    1
     3     2    32    1
     4     2    42    1
     5    47     3    1
     6    50     3    1
     7     4    48    1
     8    51     4    1
     9     5    50    1
    10     5    55    1
    11     6    51    1
    12     6    58    1
    13    52     7    1
    14    61     7    1
    15    53     8    1
    16     8   127    1
    17    54     9    1
    18     9   128    1
    19    56    10    1
    20    64    10    1
    21    57    11    1
    22    11   131    1
    23    59    12    1
    24    12   134    1
    25    13    61    1
    26    13    66    1
    27    14    60    1
    28    14   135    1
    29    15    62    1
    30    15   140    1
    31    16    64    1
    32    16    70    1
    33    63    17    1
    34    17   142    1
    35    65    18    1
    36    18   148    1
    37    67    19    1
    38    19   149    1
    39    68    20    1
    40    20   150    1
    41    69    21    1
    42    21   154    1
    43    71    22    1
    44    22   155    1
    45    23    24    1
    46    23    25    1
    47    23    31    1
    48    23    35    1
    49    24    26    1
    50    24    28    1
    51    24    74    1
    52    25    27    1
    53    25    30    1
    54    25    75    1
    55    26    29    1
    56    26    36    1
    57    26    76    1
    58    27    28    1
    59    27    77    1
    60    28    78    1
    61    28    79    1
    62    29    33    1
    63    29    34    1
    64    29    80    1
    65    30    32    1
    66    30    40    1
    67    30    81    1
    68    31    33    1
    69    31    82    1
    70    31    83    1
    71    32    38    1
    72    33    84    1
    73    33    85    1
    74    34    37    1
    75    34    39    1
    76    34    43    1
    77    35    86    1
    78    35    87    1
    79    35    88    1
    80    36    41    1
    81    36    89    1
    82    36    90    1
    83    37    41    2
    84    37    45    1
    85    38    44    1
    86    38    91    1
    87    38    92    1
    88    39    46    1
    89    39    93    1
    90    39    94    1
    91    40    95    1
    92    40    96    1
    93    40    97    1
    94    41    98    1
    95    42    44    1
    96    42    48    1
    97    42    49    1
    98    43    99    1
    99    43   100    1
   100    43   101    1
   101    44   102    1
   102    44   103    1
   103    45    47    1
   104    45   104    1
   105    45   105    1
   106    46    47    1
   107    46   106    1
   108    46   107    1
   109    47   108    1
   110    48   109    1
   111    48   110    1
   112    49   111    1
   113    49   112    1
   114    49   113    1
   115    50    52    1
   116    50   114    1
   117    51    54    1
   118    51   115    1
   119    52    53    1
   120    52   116    1
   121    53    56    1
   122    53   117    1
   123    54    57    1
   124    54   118    1
   125    55    56    1
   126    55    60    1
   127    55   119    1
   128    56   120    1
   129    57    59    1
   130    57   121    1
   131    58    59    1
   132    58    62    1
   133    58   122    1
   134    59   123    1
   135    60   124    1
   136    60   125    1
   137    61    63    1
   138    61   126    1
   139    62   129    1
   140    62   130    1
   141    63    65    1
   142    63   132    1
   143    64    67    1
   144    64   133    1
   145    65    68    1
   146    65   136    1
   147    66    68    1
   148    66    72    1
   149    66   137    1
   150    67    69    1
   151    67   138    1
   152    68   139    1
   153    69    71    1
   154    69   141    1
   155    70    71    1
   156    70    73    1
   157    70   143    1
   158    71   144    1
   159    72   145    1
   160    72   146    1
   161    72   147    1
   162    73   151    1
   163    73   152    1
   164    73   153    1
