@<TRIPOS>MOLECULE
IMPHY017179
 26 26 0 0 0
SMALL
GASTEIGER

@<TRIPOS>ATOM
      1 O           2.8660    1.0950    0.0000 O.3     1  UNL1       -0.4914
      2 O           4.5981    2.0950    0.0000 O.3     1  UNL1       -0.5031
      3 C           4.5981   -0.9050    0.0000 C.ar    1  UNL1       -0.0437
      4 C           4.5981   -1.9050    0.0000 C.3     1  UNL1       -0.0304
      5 C           5.4641    0.5950    0.0000 C.ar    1  UNL1       -0.0051
      6 C           5.4641   -0.4050    0.0000 C.ar    1  UNL1       -0.0520
      7 C           3.7320   -0.4050    0.0000 C.ar    1  UNL1       -0.0131
      8 C           3.7320    0.5950    0.0000 C.ar    1  UNL1        0.1618
      9 C           4.5981    1.0950    0.0000 C.ar    1  UNL1        0.1614
     10 C           5.4641   -2.4050    0.0000 C.3     1  UNL1       -0.0613
     11 C           6.3301    1.0950    0.0000 C.3     1  UNL1       -0.0361
     12 C           2.0000    0.5950    0.0000 C.3     1  UNL1        0.0790
     13 H           3.9875   -1.7973    0.0000 H       1  UNL1        0.0311
     14 H           4.3860   -2.4876    0.0000 H       1  UNL1        0.0311
     15 H           6.0010   -0.7150    0.0000 H       1  UNL1        0.0624
     16 H           3.1951   -0.7150    0.0000 H       1  UNL1        0.0658
     17 H           5.1541   -2.9419    0.0000 H       1  UNL1        0.0233
     18 H           6.0010   -2.7150    0.0000 H       1  UNL1        0.0233
     19 H           5.7741   -1.8681    0.0000 H       1  UNL1        0.0233
     20 H           6.6401    0.5581    0.0000 H       1  UNL1        0.0279
     21 H           6.8671    1.4050    0.0000 H       1  UNL1        0.0279
     22 H           6.0201    1.6319    0.0000 H       1  UNL1        0.0279
     23 H           5.1350    2.4050    0.0000 H       1  UNL1        0.2923
     24 H           1.6900    1.1319    0.0000 H       1  UNL1        0.0660
     25 H           1.4631    0.2850    0.0000 H       1  UNL1        0.0660
     26 H           2.3100    0.0581    0.0000 H       1  UNL1        0.0660
@<TRIPOS>BOND
     1     1     8    1
     2     1    12    1
     3     2     9    1
     4     2    23    1
     5     3     4    1
     6     3     6   ar
     7     3     7   ar
     8     4    10    1
     9     4    13    1
    10     4    14    1
    11     5     6   ar
    12     5     9   ar
    13     5    11    1
    14     6    15    1
    15     7     8   ar
    16     7    16    1
    17     8     9   ar
    18    10    17    1
    19    10    18    1
    20    10    19    1
    21    11    20    1
    22    11    21    1
    23    11    22    1
    24    12    24    1
    25    12    25    1
    26    12    26    1
