@<TRIPOS>MOLECULE
IMPHY008283
 49 53 0 0 0
SMALL
GASTEIGER

@<TRIPOS>ATOM
      1 O           2.5367   -2.9162    0.0000 O.3     1  UNL1       -0.3663
      2 N           3.4030   -0.4157    0.0000 N.3     1  UNL1       -0.2989
      3 N           7.2628   -0.1309    0.0000 N.ar    1  UNL1       -0.3466
      4 C           4.2690   -1.9157    0.0000 C.3     1  UNL1        0.0123
      5 C           3.4030   -2.4157    0.0000 C.3     1  UNL1        0.0932
      6 C           2.5369   -1.9157    0.0000 C.3     1  UNL1        0.0984
      7 C           4.2690   -0.9157    0.0000 C.3     1  UNL1        0.0071
      8 C           2.5369   -0.9157    0.0000 C.3     1  UNL1        0.0277
      9 C           5.2833   -1.9668    0.0000 C.3     1  UNL1       -0.0384
     10 C           4.7691   -2.7817    0.0000 C.3     1  UNL1       -0.0466
     11 C           6.0827   -1.3405    0.0000 C.3     1  UNL1       -0.0114
     12 C           3.8659    0.4882    0.0000 C.3     1  UNL1        0.0031
     13 C           4.8080    0.8674    0.0000 C.3     1  UNL1       -0.0126
     14 C           6.2758   -0.3434    0.0000 C.ar    1  UNL1        0.0227
     15 C           5.7690   -2.7817    0.0000 C.3     1  UNL1       -0.0647
     16 C           5.7680    0.5361    0.0000 C.ar    1  UNL1       -0.0177
     17 C           6.4455    1.2846    0.0000 C.ar    1  UNL1        0.0033
     18 C           7.3674    0.8732    0.0000 C.ar    1  UNL1        0.0493
     19 C           8.0071   -0.7988    0.0000 C.3     1  UNL1        0.0121
     20 C           6.3204    2.3287    0.0000 C.ar    1  UNL1       -0.0523
     21 C           8.2282    1.4774    0.0000 C.ar    1  UNL1       -0.0376
     22 C           7.1669    2.9527    0.0000 C.ar    1  UNL1       -0.0611
     23 C           8.1272    2.5241    0.0000 C.ar    1  UNL1       -0.0598
     24 H           3.7130   -2.9527    0.0000 H       1  UNL1        0.0628
     25 H           2.0000   -1.6057    0.0000 H       1  UNL1        0.0635
     26 H           4.8796   -1.0234    0.0000 H       1  UNL1        0.0433
     27 H           4.4810   -0.3331    0.0000 H       1  UNL1        0.0433
     28 H           2.3249   -0.3331    0.0000 H       1  UNL1        0.0453
     29 H           1.9264   -1.0234    0.0000 H       1  UNL1        0.0453
     30 H           5.0791   -2.5522    0.0000 H       1  UNL1        0.0275
     31 H           5.7876   -2.3275    0.0000 H       1  UNL1        0.0275
     32 H           4.1865   -2.9938    0.0000 H       1  UNL1        0.0269
     33 H           4.8767   -3.3923    0.0000 H       1  UNL1        0.0269
     34 H           6.3123   -1.9164    0.0000 H       1  UNL1        0.0328
     35 H           6.7000   -1.2823    0.0000 H       1  UNL1        0.0328
     36 H           3.8056    1.1053    0.0000 H       1  UNL1        0.0430
     37 H           3.2568    0.6041    0.0000 H       1  UNL1        0.0430
     38 H           5.1670    1.3729    0.0000 H       1  UNL1        0.0326
     39 H           4.4240    1.3542    0.0000 H       1  UNL1        0.0326
     40 H           5.7690   -3.4017    0.0000 H       1  UNL1        0.0230
     41 H           6.3890   -2.7818    0.0000 H       1  UNL1        0.0230
     42 H           5.7690   -2.1617    0.0000 H       1  UNL1        0.0230
     43 H           7.5930   -1.2603    0.0000 H       1  UNL1        0.0456
     44 H           8.4686   -1.2128    0.0000 H       1  UNL1        0.0456
     45 H           8.4212   -0.3373    0.0000 H       1  UNL1        0.0456
     46 H           5.7513    2.5748    0.0000 H       1  UNL1        0.0624
     47 H           8.7914    1.2182    0.0000 H       1  UNL1        0.0638
     48 H           7.1002    3.5691    0.0000 H       1  UNL1        0.0618
     49 H           8.6305    2.8862    0.0000 H       1  UNL1        0.0618
@<TRIPOS>BOND
     1     5     1    1
     2     6     1    1
     3     2     7    1
     4     2     8    1
     5     2    12    1
     6     3    14   ar
     7     3    18   ar
     8     3    19    1
     9     4     5    1
    10     4     7    1
    11     4     9    1
    12     4    10    1
    13     5     6    1
    14     5    24    1
    15     6     8    1
    16     6    25    1
    17     7    26    1
    18     7    27    1
    19     8    28    1
    20     8    29    1
    21     9    11    1
    22     9    30    1
    23     9    31    1
    24    10    15    1
    25    10    32    1
    26    10    33    1
    27    11    14    1
    28    11    34    1
    29    11    35    1
    30    12    13    1
    31    12    36    1
    32    12    37    1
    33    13    16    1
    34    13    38    1
    35    13    39    1
    36    14    16   ar
    37    15    40    1
    38    15    41    1
    39    15    42    1
    40    16    17   ar
    41    17    18   ar
    42    17    20   ar
    43    18    21   ar
    44    19    43    1
    45    19    44    1
    46    19    45    1
    47    20    22   ar
    48    20    46    1
    49    21    23   ar
    50    21    47    1
    51    22    23   ar
    52    22    48    1
    53    23    49    1
