@<TRIPOS>MOLECULE
IMPHY015839
 30 29 0 0 0
SMALL
GASTEIGER

@<TRIPOS>ATOM
      1 O           2.8660    0.7500    0.0000 O.3     1  UNL1       -0.4679
      2 O           3.7320   -0.7500    0.0000 O.2     1  UNL1       -0.2509
      3 C           5.4641    0.2500    0.0000 C.3     1  UNL1       -0.0395
      4 C           6.3301    0.7500    0.0000 C.3     1  UNL1       -0.0343
      5 C           4.5981    0.7500    0.0000 C.3     1  UNL1        0.0452
      6 C           8.9282    0.2500    0.0000 C.3     1  UNL1       -0.0350
      7 C           7.1962    0.2500    0.0000 C.2     1  UNL1       -0.0879
      8 C           9.7942    0.7500    0.0000 C.3     1  UNL1       -0.0525
      9 C           8.0622    0.7500    0.0000 C.2     1  UNL1       -0.0879
     10 C          10.6603    0.2500    0.0000 C.3     1  UNL1       -0.0650
     11 C           3.7320    0.2500    0.0000 C.2     1  UNL1        0.3068
     12 C           2.0000    0.2500    0.0000 C.3     1  UNL1        0.0817
     13 H           5.0656   -0.2249    0.0000 H       1  UNL1        0.0273
     14 H           5.8626   -0.2249    0.0000 H       1  UNL1        0.0273
     15 H           6.7287    1.2250    0.0000 H       1  UNL1        0.0307
     16 H           5.9316    1.2250    0.0000 H       1  UNL1        0.0307
     17 H           4.9966    1.2250    0.0000 H       1  UNL1        0.0378
     18 H           4.1996    1.2250    0.0000 H       1  UNL1        0.0378
     19 H           8.5297   -0.2249    0.0000 H       1  UNL1        0.0307
     20 H           9.3267   -0.2249    0.0000 H       1  UNL1        0.0307
     21 H           7.1962   -0.3700    0.0000 H       1  UNL1        0.0569
     22 H          10.1928    1.2250    0.0000 H       1  UNL1        0.0266
     23 H           9.3957    1.2250    0.0000 H       1  UNL1        0.0266
     24 H           8.0622    1.3700    0.0000 H       1  UNL1        0.0569
     25 H          10.3503   -0.2869    0.0000 H       1  UNL1        0.0230
     26 H          11.1972   -0.0600    0.0000 H       1  UNL1        0.0230
     27 H          10.9703    0.7869    0.0000 H       1  UNL1        0.0230
     28 H           1.6900    0.7869    0.0000 H       1  UNL1        0.0661
     29 H           1.4631   -0.0600    0.0000 H       1  UNL1        0.0661
     30 H           2.3100   -0.2869    0.0000 H       1  UNL1        0.0661
@<TRIPOS>BOND
     1     1    11    1
     2     1    12    1
     3     2    11    2
     4     3     4    1
     5     3     5    1
     6     3    13    1
     7     3    14    1
     8     4     7    1
     9     4    15    1
    10     4    16    1
    11     5    11    1
    12     5    17    1
    13     5    18    1
    14     6     8    1
    15     6     9    1
    16     6    19    1
    17     6    20    1
    18     7     9    2
    19     7    21    1
    20     8    10    1
    21     8    22    1
    22     8    23    1
    23     9    24    1
    24    10    25    1
    25    10    26    1
    26    10    27    1
    27    12    28    1
    28    12    29    1
    29    12    30    1
