@<TRIPOS>MOLECULE
IMPHY004383
 96 96 0 0 0
SMALL
GASTEIGER

@<TRIPOS>ATOM
      1 C           3.0000   -9.0000    0.0000 C.3     1  UNL1       -0.0099
      2 C           3.0000  -10.0000    0.0000 C.3     1  UNL1       -0.0436
      3 C           3.8660  -10.5000    0.0000 C.3     1  UNL1       -0.0486
      4 C           3.8660   -8.5000    0.0000 C.2     1  UNL1       -0.0427
      5 C           4.7320  -10.0000    0.0000 C.3     1  UNL1       -0.0314
      6 C           4.7320   -9.0000    0.0000 C.2     1  UNL1       -0.0689
      7 C           2.0000   -9.0000    0.0000 C.3     1  UNL1       -0.0558
      8 C           2.5000   -8.1340    0.0000 C.3     1  UNL1       -0.0558
      9 C           3.8660   -7.5000    0.0000 C.2     1  UNL1       -0.0579
     10 C           5.5981   -8.5000    0.0000 C.3     1  UNL1       -0.0432
     11 C           4.7320   -7.0000    0.0000 C.2     1  UNL1       -0.0586
     12 C           4.7320   -6.0000    0.0000 C.2     1  UNL1       -0.0504
     13 C           3.8660   -5.5000    0.0000 C.3     1  UNL1       -0.0397
     14 C           5.5981   -5.5000    0.0000 C.2     1  UNL1       -0.0588
     15 C           5.5981   -4.5000    0.0000 C.2     1  UNL1       -0.0613
     16 C           6.4641   -4.0000    0.0000 C.2     1  UNL1       -0.0588
     17 C           6.4641   -3.0000    0.0000 C.2     1  UNL1       -0.0504
     18 C           5.5981   -2.5000    0.0000 C.3     1  UNL1       -0.0397
     19 C           7.3301   -2.5000    0.0000 C.2     1  UNL1       -0.0588
     20 C          12.5263    7.5000    0.0000 C.3     1  UNL1       -0.0283
     21 C          13.3923    8.0000    0.0000 C.3     1  UNL1       -0.0308
     22 C          12.5263    6.5000    0.0000 C.2     1  UNL1       -0.0723
     23 C          13.3923    9.0000    0.0000 C.2     1  UNL1       -0.0850
     24 C           7.3301   -1.5000    0.0000 C.2     1  UNL1       -0.0615
     25 C          14.2583    9.5000    0.0000 C.2     1  UNL1       -0.0796
     26 C          13.3923    6.0000    0.0000 C.3     1  UNL1       -0.0435
     27 C          11.6603    6.0000    0.0000 C.2     1  UNL1       -0.0628
     28 C          14.2583   10.5000    0.0000 C.3     1  UNL1       -0.0440
     29 C          15.1244    9.0000    0.0000 C.3     1  UNL1       -0.0440
     30 C           8.1962   -1.0000    0.0000 C.2     1  UNL1       -0.0615
     31 C          11.6603    5.0000    0.0000 C.2     1  UNL1       -0.0616
     32 C          10.7942    4.5000    0.0000 C.2     1  UNL1       -0.0588
     33 C          10.7942    3.5000    0.0000 C.2     1  UNL1       -0.0504
     34 C           8.1962    0.0000    0.0000 C.2     1  UNL1       -0.0588
     35 C           9.0622    0.5000    0.0000 C.2     1  UNL1       -0.0504
     36 C           9.9282    3.0000    0.0000 C.2     1  UNL1       -0.0588
     37 C          11.6603    3.0000    0.0000 C.3     1  UNL1       -0.0397
     38 C           9.0622    1.5000    0.0000 C.2     1  UNL1       -0.0588
     39 C           9.9282    2.0000    0.0000 C.2     1  UNL1       -0.0613
     40 C           9.9282    0.0000    0.0000 C.3     1  UNL1       -0.0397
     41 H           2.3894   -9.8923    0.0000 H       1  UNL1        0.0274
     42 H           2.7880  -10.5826    0.0000 H       1  UNL1        0.0274
     43 H           3.4675  -10.9749    0.0000 H       1  UNL1        0.0269
     44 H           4.2646  -10.9749    0.0000 H       1  UNL1        0.0269
     45 H           4.9441  -10.5826    0.0000 H       1  UNL1        0.0310
     46 H           5.3426   -9.8923    0.0000 H       1  UNL1        0.0310
     47 H           3.0369   -7.8240    0.0000 H       1  UNL1        0.0238
     48 H           2.1900   -7.5970    0.0000 H       1  UNL1        0.0238
     49 H           1.9631   -8.4440    0.0000 H       1  UNL1        0.0238
     50 H           2.0000   -8.3800    0.0000 H       1  UNL1        0.0238
     51 H           1.3800   -9.0000    0.0000 H       1  UNL1        0.0238
     52 H           2.0000   -9.6200    0.0000 H       1  UNL1        0.0238
     53 H           3.3291   -7.1900    0.0000 H       1  UNL1        0.0621
     54 H           5.9081   -9.0369    0.0000 H       1  UNL1        0.0275
     55 H           6.1350   -8.1900    0.0000 H       1  UNL1        0.0275
     56 H           5.2881   -7.9631    0.0000 H       1  UNL1        0.0275
     57 H           5.2690   -7.3100    0.0000 H       1  UNL1        0.0620
     58 H           4.1760   -4.9631    0.0000 H       1  UNL1        0.0278
     59 H           3.3291   -5.1900    0.0000 H       1  UNL1        0.0278
     60 H           3.5560   -6.0369    0.0000 H       1  UNL1        0.0278
     61 H           6.1350   -5.8100    0.0000 H       1  UNL1        0.0620
     62 H           5.0611   -4.1900    0.0000 H       1  UNL1        0.0618
     63 H           7.0010   -4.3100    0.0000 H       1  UNL1        0.0620
     64 H           5.9081   -1.9631    0.0000 H       1  UNL1        0.0278
     65 H           5.0611   -2.1900    0.0000 H       1  UNL1        0.0278
     66 H           5.2881   -3.0369    0.0000 H       1  UNL1        0.0278
     67 H           7.8671   -2.8100    0.0000 H       1  UNL1        0.0620
     68 H          12.3142    8.0826    0.0000 H       1  UNL1        0.0313
     69 H          11.9157    7.3923    0.0000 H       1  UNL1        0.0313
     70 H          13.6044    7.4174    0.0000 H       1  UNL1        0.0310
     71 H          14.0029    8.1077    0.0000 H       1  UNL1        0.0310
     72 H          12.8554    9.3100    0.0000 H       1  UNL1        0.0572
     73 H           6.7932   -1.1900    0.0000 H       1  UNL1        0.0618
     74 H          13.0823    5.4631    0.0000 H       1  UNL1        0.0274
     75 H          13.9292    5.6900    0.0000 H       1  UNL1        0.0274
     76 H          13.7023    6.5369    0.0000 H       1  UNL1        0.0274
     77 H          11.1233    6.3100    0.0000 H       1  UNL1        0.0617
     78 H          14.8144    8.4631    0.0000 H       1  UNL1        0.0274
     79 H          15.6613    8.6900    0.0000 H       1  UNL1        0.0274
     80 H          15.4344    9.5369    0.0000 H       1  UNL1        0.0274
     81 H          14.8783   10.5000    0.0000 H       1  UNL1        0.0274
     82 H          14.2583   11.1200    0.0000 H       1  UNL1        0.0274
     83 H          13.6383   10.5000    0.0000 H       1  UNL1        0.0274
     84 H          12.1972    4.6900    0.0000 H       1  UNL1        0.0618
     85 H           8.7331   -1.3100    0.0000 H       1  UNL1        0.0618
     86 H          10.2573    4.8100    0.0000 H       1  UNL1        0.0620
     87 H           7.6592    0.3100    0.0000 H       1  UNL1        0.0620
     88 H           9.3913    3.3100    0.0000 H       1  UNL1        0.0620
     89 H          11.3503    2.4631    0.0000 H       1  UNL1        0.0278
     90 H          12.1972    2.6900    0.0000 H       1  UNL1        0.0278
     91 H          11.9703    3.5369    0.0000 H       1  UNL1        0.0278
     92 H           8.5252    1.8100    0.0000 H       1  UNL1        0.0620
     93 H          10.4651    1.6900    0.0000 H       1  UNL1        0.0618
     94 H           9.6182   -0.5369    0.0000 H       1  UNL1        0.0278
     95 H          10.4651   -0.3100    0.0000 H       1  UNL1        0.0278
     96 H          10.2382    0.5369    0.0000 H       1  UNL1        0.0278
@<TRIPOS>BOND
     1     1     2    1
     2     1     4    1
     3     1     7    1
     4     1     8    1
     5     2     3    1
     6     2    41    1
     7     2    42    1
     8     3     5    1
     9     3    43    1
    10     3    44    1
    11     4     6    2
    12     4     9    1
    13     5     6    1
    14     5    45    1
    15     5    46    1
    16     6    10    1
    17     7    50    1
    18     7    51    1
    19     7    52    1
    20     8    47    1
    21     8    48    1
    22     8    49    1
    23     9    11    2
    24     9    53    1
    25    10    54    1
    26    10    55    1
    27    10    56    1
    28    11    12    1
    29    11    57    1
    30    12    13    1
    31    12    14    2
    32    13    58    1
    33    13    59    1
    34    13    60    1
    35    14    15    1
    36    14    61    1
    37    15    16    2
    38    15    62    1
    39    16    17    1
    40    16    63    1
    41    17    18    1
    42    17    19    2
    43    18    64    1
    44    18    65    1
    45    18    66    1
    46    19    24    1
    47    19    67    1
    48    20    21    1
    49    20    22    1
    50    20    68    1
    51    20    69    1
    52    21    23    1
    53    21    70    1
    54    21    71    1
    55    22    26    1
    56    22    27    2
    57    23    25    2
    58    23    72    1
    59    24    30    2
    60    24    73    1
    61    25    28    1
    62    25    29    1
    63    26    74    1
    64    26    75    1
    65    26    76    1
    66    27    31    1
    67    27    77    1
    68    28    81    1
    69    28    82    1
    70    28    83    1
    71    29    78    1
    72    29    79    1
    73    29    80    1
    74    30    34    1
    75    30    85    1
    76    31    32    2
    77    31    84    1
    78    32    33    1
    79    32    86    1
    80    33    36    2
    81    33    37    1
    82    34    35    2
    83    34    87    1
    84    35    38    1
    85    35    40    1
    86    36    39    1
    87    36    88    1
    88    37    89    1
    89    37    90    1
    90    37    91    1
    91    38    39    2
    92    38    92    1
    93    39    93    1
    94    40    94    1
    95    40    95    1
    96    40    96    1
