@<TRIPOS>MOLECULE
IMPHY012896
 28 28 0 0 0
SMALL
GASTEIGER

@<TRIPOS>ATOM
      1 O           3.7601   -1.4776    0.0000 O.3     1  UNL1       -0.4613
      2 O           2.0000   -1.1989    0.0000 O.2     1  UNL1       -0.2508
      3 C           4.5691   -0.8899    0.0000 C.3     1  UNL1        0.1039
      4 C           4.2601    0.0612    0.0000 C.3     1  UNL1       -0.0056
      5 C           5.5202   -1.1989    0.0000 C.3     1  UNL1       -0.0122
      6 C           3.2601    0.0612    0.0000 C.3     1  UNL1        0.0483
      7 C           6.2633   -0.5297    0.0000 C.3     1  UNL1       -0.0314
      8 C           2.9511   -0.8899    0.0000 C.2     1  UNL1        0.3075
      9 C           7.2144   -0.8388    0.0000 C.2     1  UNL1       -0.0878
     10 C           7.9575   -0.1696    0.0000 C.2     1  UNL1       -0.0882
     11 C           7.7496    0.8085    0.0000 C.3     1  UNL1       -0.0376
     12 C           8.4927    1.4776    0.0000 C.3     1  UNL1       -0.0618
     13 H           4.6661   -1.5022    0.0000 H       1  UNL1        0.0734
     14 H           4.8665    0.1901    0.0000 H       1  UNL1        0.0306
     15 H           4.1953    0.6778    0.0000 H       1  UNL1        0.0306
     16 H           5.2291   -1.7463    0.0000 H       1  UNL1        0.0304
     17 H           6.0087   -1.5806    0.0000 H       1  UNL1        0.0304
     18 H           3.3249    0.6778    0.0000 H       1  UNL1        0.0379
     19 H           2.6536    0.1901    0.0000 H       1  UNL1        0.0379
     20 H           6.5544    0.0177    0.0000 H       1  UNL1        0.0308
     21 H           5.7747   -0.1480    0.0000 H       1  UNL1        0.0308
     22 H           7.3432   -1.4452    0.0000 H       1  UNL1        0.0569
     23 H           8.5472   -0.3612    0.0000 H       1  UNL1        0.0569
     24 H           7.4210    1.3343    0.0000 H       1  UNL1        0.0305
     25 H           7.1747    0.5763    0.0000 H       1  UNL1        0.0305
     26 H           8.9076    1.0169    0.0000 H       1  UNL1        0.0233
     27 H           8.9535    1.8925    0.0000 H       1  UNL1        0.0233
     28 H           8.0779    1.9384    0.0000 H       1  UNL1        0.0233
@<TRIPOS>BOND
     1     1     3    1
     2     1     8    1
     3     2     8    2
     4     3     4    1
     5     3     5    1
     6     3    13    1
     7     4     6    1
     8     4    14    1
     9     4    15    1
    10     5     7    1
    11     5    16    1
    12     5    17    1
    13     6     8    1
    14     6    18    1
    15     6    19    1
    16     7     9    1
    17     7    20    1
    18     7    21    1
    19     9    10    2
    20     9    22    1
    21    10    11    1
    22    10    23    1
    23    11    12    1
    24    11    24    1
    25    11    25    1
    26    12    26    1
    27    12    27    1
    28    12    28    1
