@<TRIPOS>MOLECULE
IMPHY001829
 86 90 0 0 0
SMALL
GASTEIGER

@<TRIPOS>ATOM
      1 O           3.7320   -1.9563    0.0000 O.3     1  UNL1       -0.4604
      2 O           5.5463   -3.7342    0.0000 O.3     1  UNL1       -0.4801
      3 O           4.0430   -2.8739    0.0000 O.2     1  UNL1       -0.2503
      4 O           2.8718   -0.4529    0.0000 O.2     1  UNL1       -0.2512
      5 C           8.2591   -0.4039    0.0000 C.3     1  UNL1       -0.0194
      6 C           7.3931    0.0961    0.0000 C.3     1  UNL1       -0.0257
      7 C           6.4831   -0.4108    0.0000 C.3     1  UNL1       -0.0244
      8 C           9.1251    0.0961    0.0000 C.3     1  UNL1       -0.0051
      9 C           6.4750   -1.4524    0.0000 C.3     1  UNL1       -0.0164
     10 C           8.2752   -1.4454    0.0000 C.3     1  UNL1       -0.0463
     11 C           9.1251    1.0961    0.0000 C.2     1  UNL1       -0.0632
     12 C          10.0191    1.6307    0.0000 C.3     1  UNL1       -0.0111
     13 C          10.9251    1.1169    0.0000 C.3     1  UNL1       -0.0253
     14 C           7.3771   -1.9732    0.0000 C.3     1  UNL1       -0.0481
     15 C          10.0191   -0.4386    0.0000 C.3     1  UNL1       -0.0429
     16 C           7.3931    1.0961    0.0000 C.3     1  UNL1       -0.0306
     17 C           5.5396   -2.0021    0.0000 C.3     1  UNL1        0.1047
     18 C           5.5562    0.1533    0.0000 C.3     1  UNL1       -0.0437
     19 C          10.9251    0.0752    0.0000 C.3     1  UNL1       -0.0463
     20 C           8.9019   -1.1700    0.0000 C.3     1  UNL1       -0.0585
     21 C           8.2591    1.5961    0.0000 C.2     1  UNL1       -0.0836
     22 C           9.9940    2.7154    0.0000 C.3     1  UNL1       -0.0343
     23 C           6.4908    0.5892    0.0000 C.3     1  UNL1       -0.0590
     24 C           9.4672   -0.8436    0.0000 C.3     1  UNL1       -0.0553
     25 C           4.6000   -1.4596    0.0000 C.3     1  UNL1        0.1187
     26 C           4.6084   -0.3747    0.0000 C.3     1  UNL1       -0.0141
     27 C          11.8689    1.6521    0.0000 C.3     1  UNL1       -0.0468
     28 C          10.9251    3.2723    0.0000 C.3     1  UNL1       -0.0407
     29 C          11.8689    2.7371    0.0000 C.3     1  UNL1       -0.0497
     30 C          11.7950    0.6236    0.0000 C.3     1  UNL1       -0.0590
     31 C           6.0430   -2.8662    0.0000 C.3     1  UNL1       -0.0457
     32 C           5.0430   -2.8701    0.0000 C.2     1  UNL1        0.3145
     33 C           9.1185    3.1986    0.0000 C.3     1  UNL1       -0.0616
     34 C          10.9136    4.2723    0.0000 C.3     1  UNL1       -0.0622
     35 C           2.8680   -1.4529    0.0000 C.2     1  UNL1        0.3042
     36 C           2.0000   -1.9496    0.0000 C.3     1  UNL1        0.0332
     37 H           8.1292    0.5211    0.0000 H       1  UNL1        0.0315
     38 H           6.4783   -2.3024    0.0000 H       1  UNL1        0.0318
     39 H           8.4932   -2.0258    0.0000 H       1  UNL1        0.0271
     40 H           8.8843   -1.3300    0.0000 H       1  UNL1        0.0271
     41 H           9.2749    2.0415    0.0000 H       1  UNL1        0.0354
     42 H           6.9798   -2.4492    0.0000 H       1  UNL1        0.0269
     43 H           7.7781   -2.4461    0.0000 H       1  UNL1        0.0269
     44 H           9.6145   -0.9084    0.0000 H       1  UNL1        0.0274
     45 H          10.4127   -0.9176    0.0000 H       1  UNL1        0.0274
     46 H           7.1810    1.6787    0.0000 H       1  UNL1        0.0310
     47 H           6.7825    0.9884    0.0000 H       1  UNL1        0.0310
     48 H           5.9644    0.6199    0.0000 H       1  UNL1        0.0272
     49 H           5.1663    0.6353    0.0000 H       1  UNL1        0.0272
     50 H          11.1342   -0.5084    0.0000 H       1  UNL1        0.0271
     51 H          11.5360    0.1813    0.0000 H       1  UNL1        0.0271
     52 H           8.4269   -1.5685    0.0000 H       1  UNL1        0.0235
     53 H           9.3004   -1.6449    0.0000 H       1  UNL1        0.0235
     54 H           9.3768   -0.7715    0.0000 H       1  UNL1        0.0235
     55 H           8.2591    2.2161    0.0000 H       1  UNL1        0.0572
     56 H           9.9832    3.3353    0.0000 H       1  UNL1        0.0307
     57 H           7.1108    0.5844    0.0000 H       1  UNL1        0.0235
     58 H           6.4956    1.2092    0.0000 H       1  UNL1        0.0235
     59 H           5.8708    0.5940    0.0000 H       1  UNL1        0.0235
     60 H           8.8846   -1.0557    0.0000 H       1  UNL1        0.0238
     61 H           9.6794   -1.4262    0.0000 H       1  UNL1        0.0238
     62 H          10.0498   -0.6315    0.0000 H       1  UNL1        0.0238
     63 H           4.0648   -1.1465    0.0000 H       1  UNL1        0.0745
     64 H           4.4038    0.2106    0.0000 H       1  UNL1        0.0301
     65 H           3.9967   -0.4760    0.0000 H       1  UNL1        0.0301
     66 H          12.0780    1.0684    0.0000 H       1  UNL1        0.0271
     67 H          12.4798    1.7582    0.0000 H       1  UNL1        0.0271
     68 H          10.3841    3.5751    0.0000 H       1  UNL1        0.0301
     69 H          12.4798    2.6310    0.0000 H       1  UNL1        0.0268
     70 H          12.0780    3.3208    0.0000 H       1  UNL1        0.0268
     71 H          11.4891    0.0843    0.0000 H       1  UNL1        0.0235
     72 H          12.3343    0.3177    0.0000 H       1  UNL1        0.0235
     73 H          12.1008    1.1629    0.0000 H       1  UNL1        0.0235
     74 H           5.5072   -3.1783    0.0000 H       1  UNL1        0.0242
     75 H           6.3550   -3.4019    0.0000 H       1  UNL1        0.0242
     76 H           6.5787   -2.5541    0.0000 H       1  UNL1        0.0242
     77 H           9.4181    3.7414    0.0000 H       1  UNL1        0.0233
     78 H           8.5757    3.4982    0.0000 H       1  UNL1        0.0233
     79 H           8.8189    2.6558    0.0000 H       1  UNL1        0.0233
     80 H          11.5335    4.2794    0.0000 H       1  UNL1        0.0233
     81 H          10.9064    4.8922    0.0000 H       1  UNL1        0.0233
     82 H          10.2936    4.2651    0.0000 H       1  UNL1        0.0233
     83 H           5.2384   -4.2723    0.0000 H       1  UNL1        0.2951
     84 H           1.6921   -1.4115    0.0000 H       1  UNL1        0.0342
     85 H           1.4619   -2.2575    0.0000 H       1  UNL1        0.0342
     86 H           2.3079   -2.4877    0.0000 H       1  UNL1        0.0342
@<TRIPOS>BOND
     1    25     1    1
     2     1    35    1
     3     2    32    1
     4     2    83    1
     5     3    32    2
     6     4    35    2
     7     5     6    1
     8     5     8    1
     9     5    10    1
    10     5    20    1
    11     6     7    1
    12     6    16    1
    13     6    37    1
    14     7     9    1
    15     7    18    1
    16     7    23    1
    17     8    11    1
    18     8    15    1
    19     8    24    1
    20     9    14    1
    21     9    17    1
    22     9    38    1
    23    10    14    1
    24    10    39    1
    25    10    40    1
    26    11    12    1
    27    11    21    2
    28    12    13    1
    29    12    22    1
    30    12    41    1
    31    13    19    1
    32    13    27    1
    33    13    30    1
    34    14    42    1
    35    14    43    1
    36    15    19    1
    37    15    44    1
    38    15    45    1
    39    16    21    1
    40    16    46    1
    41    16    47    1
    42    17    25    1
    43    17    31    1
    44    17    32    1
    45    18    26    1
    46    18    48    1
    47    18    49    1
    48    19    50    1
    49    19    51    1
    50    20    52    1
    51    20    53    1
    52    20    54    1
    53    21    55    1
    54    22    28    1
    55    22    33    1
    56    22    56    1
    57    23    57    1
    58    23    58    1
    59    23    59    1
    60    24    60    1
    61    24    61    1
    62    24    62    1
    63    25    26    1
    64    25    63    1
    65    26    64    1
    66    26    65    1
    67    27    29    1
    68    27    66    1
    69    27    67    1
    70    28    29    1
    71    28    34    1
    72    28    68    1
    73    29    69    1
    74    29    70    1
    75    30    71    1
    76    30    72    1
    77    30    73    1
    78    31    74    1
    79    31    75    1
    80    31    76    1
    81    33    77    1
    82    33    78    1
    83    33    79    1
    84    34    80    1
    85    34    81    1
    86    34    82    1
    87    35    36    1
    88    36    84    1
    89    36    85    1
    90    36    86    1
