@<TRIPOS>MOLECULE
IMPHY009961
 23 22 0 0 0
SMALL
GASTEIGER

@<TRIPOS>ATOM
      1 O           3.7320    0.7500    0.0000 O.3     1  UNL1       -0.4649
      2 O           4.5981   -0.7500    0.0000 O.2     1  UNL1       -0.2508
      3 C           6.3301    0.2500    0.0000 C.3     1  UNL1       -0.0367
      4 C           5.4641    0.7500    0.0000 C.3     1  UNL1        0.0473
      5 C           7.1962    0.7500    0.0000 C.3     1  UNL1       -0.0622
      6 C           6.3301   -0.7500    0.0000 C.3     1  UNL1       -0.0622
      7 C           4.5981    0.2500    0.0000 C.2     1  UNL1        0.3073
      8 C           2.8660    0.2500    0.0000 C.3     1  UNL1        0.0896
      9 C           2.0000    0.7500    0.0000 C.3     1  UNL1       -0.0306
     10 H           6.8671   -0.0600    0.0000 H       1  UNL1        0.0301
     11 H           5.8626    1.2250    0.0000 H       1  UNL1        0.0380
     12 H           5.0656    1.2250    0.0000 H       1  UNL1        0.0380
     13 H           7.5062    0.2131    0.0000 H       1  UNL1        0.0232
     14 H           7.7331    1.0600    0.0000 H       1  UNL1        0.0232
     15 H           6.8862    1.2869    0.0000 H       1  UNL1        0.0232
     16 H           5.7101   -0.7500    0.0000 H       1  UNL1        0.0232
     17 H           6.3301   -1.3700    0.0000 H       1  UNL1        0.0232
     18 H           6.9501   -0.7500    0.0000 H       1  UNL1        0.0232
     19 H           2.4675   -0.2249    0.0000 H       1  UNL1        0.0694
     20 H           3.2646   -0.2249    0.0000 H       1  UNL1        0.0694
     21 H           2.3100    1.2869    0.0000 H       1  UNL1        0.0262
     22 H           1.4631    1.0600    0.0000 H       1  UNL1        0.0262
     23 H           1.6900    0.2131    0.0000 H       1  UNL1        0.0262
@<TRIPOS>BOND
     1     1     7    1
     2     1     8    1
     3     2     7    2
     4     3     4    1
     5     3     5    1
     6     3     6    1
     7     3    10    1
     8     4     7    1
     9     4    11    1
    10     4    12    1
    11     5    13    1
    12     5    14    1
    13     5    15    1
    14     6    16    1
    15     6    17    1
    16     6    18    1
    17     8     9    1
    18     8    19    1
    19     8    20    1
    20     9    21    1
    21     9    22    1
    22     9    23    1
