@<TRIPOS>MOLECULE
IMPHY002270
 67 74 0 0 0
SMALL
GASTEIGER

@<TRIPOS>ATOM
      1 O           5.8542    1.4896    0.0000 O.3     1  UNL1       -0.4789
      2 O           8.5225    3.5359    0.0000 O.3     1  UNL1       -0.3866
      3 O           9.7550   -1.6483    0.0000 O.3     1  UNL1       -0.4542
      4 O          11.3341    1.5961    0.0000 O.3     1  UNL1       -0.5060
      5 O           3.4119   -1.1845    0.0000 O.3     1  UNL1       -0.5066
      6 O           8.9388   -3.1810    0.0000 O.3     1  UNL1       -0.5059
      7 O          13.5656   -2.3556    0.0000 O.2     1  UNL1       -0.4547
      8 O           5.4806   -3.3827    0.0000 O.3     1  UNL1       -0.5066
      9 O          16.6722   -4.0728    0.0000 O.3     1  UNL1       -0.5066
     10 C           7.5447    0.7213    0.0000 C.3     1  UNL1        0.0467
     11 C           7.2859    1.6872    0.0000 C.3     1  UNL1        0.1533
     12 C           8.0225    2.6699    0.0000 C.3     1  UNL1        0.1091
     13 C           8.7657   -0.1443    0.0000 C.2     1  UNL1        0.0134
     14 C           6.2730   -0.0733    0.0000 C.ar    1  UNL1        0.0047
     15 C           9.5948    0.4148    0.0000 C.2     1  UNL1       -0.0036
     16 C           9.3191    1.3761    0.0000 C.2     1  UNL1       -0.0304
     17 C           7.0270    2.6532    0.0000 C.3     1  UNL1       -0.0187
     18 C           5.4959    0.5560    0.0000 C.ar    1  UNL1        0.1292
     19 C           8.8223   -1.1844    0.0000 C.2     1  UNL1        0.1435
     20 C          10.5379   -0.0273    0.0000 C.ar    1  UNL1        0.0660
     21 C           6.1259   -1.1045    0.0000 C.ar    1  UNL1       -0.0510
     22 C          10.6186   -1.0658    0.0000 C.ar    1  UNL1        0.1403
     23 C           4.5178    0.1977    0.0000 C.ar    1  UNL1        0.0219
     24 C           7.9869   -1.7340    0.0000 C.ar    1  UNL1        0.0592
     25 C          11.4231    0.6001    0.0000 C.ar    1  UNL1        0.1287
     26 C           5.1564   -1.4853    0.0000 C.ar    1  UNL1       -0.0197
     27 C           4.3469   -0.8298    0.0000 C.ar    1  UNL1        0.1203
     28 C          11.5900   -1.5489    0.0000 C.ar    1  UNL1       -0.0078
     29 C          12.4055    0.1395    0.0000 C.ar    1  UNL1       -0.0087
     30 C          12.4895   -0.9422    0.0000 C.ar    1  UNL1        0.0242
     31 C           8.0451   -2.7323    0.0000 C.ar    1  UNL1        0.1310
     32 C           7.0932   -1.2853    0.0000 C.ar    1  UNL1       -0.0441
     33 C          13.3900   -1.3771    0.0000 C.ar    1  UNL1        0.1365
     34 C           7.2097   -3.2819    0.0000 C.ar    1  UNL1        0.0220
     35 C           6.2578   -1.8348    0.0000 C.ar    1  UNL1       -0.0193
     36 C           6.3160   -2.8331    0.0000 C.ar    1  UNL1        0.1204
     37 C          14.2655   -0.9063    0.0000 C.ar    1  UNL1       -0.0081
     38 C          14.9851   -1.5922    0.0000 C.ar    1  UNL1        0.0210
     39 C          14.5501   -2.4927    0.0000 C.ar    1  UNL1        0.1391
     40 C          15.9823   -1.5186    0.0000 C.ar    1  UNL1       -0.0475
     41 C          15.1125   -3.3195    0.0000 C.ar    1  UNL1        0.0227
     42 C          16.1098   -3.2459    0.0000 C.ar    1  UNL1        0.1204
     43 C          16.5447   -2.3455    0.0000 C.ar    1  UNL1       -0.0194
     44 H           7.7647   -0.0997    0.0000 H       1  UNL1        0.0426
     45 H           7.5050    3.0114    0.0000 H       1  UNL1        0.0646
     46 H           9.7287    1.8415    0.0000 H       1  UNL1        0.0618
     47 H           6.4282    2.4927    0.0000 H       1  UNL1        0.0272
     48 H           6.8666    3.2520    0.0000 H       1  UNL1        0.0272
     49 H           7.6259    2.8136    0.0000 H       1  UNL1        0.0272
     50 H           8.2125    4.0728    0.0000 H       1  UNL1        0.2100
     51 H           6.6122   -1.4891    0.0000 H       1  UNL1        0.0623
     52 H           4.0405    0.5935    0.0000 H       1  UNL1        0.0691
     53 H           5.0618   -2.0980    0.0000 H       1  UNL1        0.0654
     54 H          11.6309   -2.1676    0.0000 H       1  UNL1        0.0661
     55 H          12.9155    0.4922    0.0000 H       1  UNL1        0.0661
     56 H           7.0571   -0.6663    0.0000 H       1  UNL1        0.0627
     57 H          11.8414    1.9526    0.0000 H       1  UNL1        0.2922
     58 H           7.2458   -3.9008    0.0000 H       1  UNL1        0.0691
     59 H           2.9316   -0.7925    0.0000 H       1  UNL1        0.2921
     60 H           5.7037   -1.5566    0.0000 H       1  UNL1        0.0654
     61 H          14.3484   -0.2918    0.0000 H       1  UNL1        0.0661
     62 H           8.9749   -3.8000    0.0000 H       1  UNL1        0.2922
     63 H          16.2520   -0.9603    0.0000 H       1  UNL1        0.0626
     64 H          14.8429   -3.8778    0.0000 H       1  UNL1        0.0691
     65 H           5.5166   -4.0017    0.0000 H       1  UNL1        0.2921
     66 H          17.1630   -2.2998    0.0000 H       1  UNL1        0.0654
     67 H          17.2905   -4.0272    0.0000 H       1  UNL1        0.2921
@<TRIPOS>BOND
     1     1    11    1
     2     1    18    1
     3    12     2    1
     4     2    50    1
     5     3    19    1
     6     3    22    1
     7     4    25    1
     8     4    57    1
     9     5    27    1
    10     5    59    1
    11     6    31    1
    12     6    62    1
    13     7    33   ar
    14     7    39   ar
    15     8    36    1
    16     8    65    1
    17     9    42    1
    18     9    67    1
    19    10    12    1
    20    10    13    1
    21    10    14    1
    22    10    44    1
    23    11    12    1
    24    11    16    1
    25    11    17    1
    26    12    45    1
    27    13    15    1
    28    13    19    2
    29    14    18   ar
    30    14    21   ar
    31    15    16    2
    32    15    20    1
    33    16    46    1
    34    17    47    1
    35    17    48    1
    36    17    49    1
    37    18    23   ar
    38    19    24    1
    39    20    22   ar
    40    20    25   ar
    41    21    26   ar
    42    21    51    1
    43    22    28   ar
    44    23    27   ar
    45    23    52    1
    46    24    31   ar
    47    24    32   ar
    48    25    29   ar
    49    26    27   ar
    50    26    53    1
    51    28    30   ar
    52    28    54    1
    53    29    30   ar
    54    29    55    1
    55    30    33    1
    56    31    34   ar
    57    32    35   ar
    58    32    56    1
    59    33    37   ar
    60    34    36   ar
    61    34    58    1
    62    35    36   ar
    63    35    60    1
    64    37    38   ar
    65    37    61    1
    66    38    39   ar
    67    38    40   ar
    68    39    41   ar
    69    40    43   ar
    70    40    63    1
    71    41    42   ar
    72    41    64    1
    73    42    43   ar
    74    43    66    1
