@<TRIPOS>MOLECULE
IMPHY010469
 51 56 0 0 0
SMALL
GASTEIGER

@<TRIPOS>ATOM
      1 O           6.9652    0.3684    0.0000 O.3     1  UNL1       -0.3541
      2 O           5.9652    1.9320    0.0000 O.3     1  UNL1       -0.3678
      3 O           8.0603    1.3656    0.0000 O.3     1  UNL1       -0.4658
      4 O           7.0145    2.7463    0.0000 O.2     1  UNL1       -0.2474
      5 N           4.4544   -1.4735    0.0000 N.3     1  UNL1       -0.2939
      6 N           4.7919    1.9784    0.0000 N.pl3   1  UNL1       -0.3131
      7 C           4.7182    0.3684    0.0000 C.3     1  UNL1        0.0638
      8 C           4.9407   -0.6065    0.0000 C.3     1  UNL1        0.0363
      9 C           5.8417   -1.0404    0.0000 C.3     1  UNL1        0.0346
     10 C           5.3417    1.1502    0.0000 C.3     1  UNL1        0.1820
     11 C           6.3417    1.1502    0.0000 C.3     1  UNL1        0.2126
     12 C           5.7348    0.1363    0.0000 C.3     1  UNL1        0.0042
     13 C           3.8173   -0.0518    0.0000 C.3     1  UNL1       -0.0246
     14 C           6.7427   -0.6065    0.0000 C.3     1  UNL1        0.0681
     15 C           3.7884    0.7201    0.0000 C.ar    1  UNL1       -0.0143
     16 C           3.7080   -1.1596    0.0000 C.3     1  UNL1        0.0005
     17 C           6.2710   -1.9662    0.0000 C.2     1  UNL1       -0.0765
     18 C           4.6280   -2.4791    0.0000 C.3     1  UNL1        0.0175
     19 C           3.8339    1.7131    0.0000 C.ar    1  UNL1        0.0332
     20 C           7.1388    1.7540    0.0000 C.2     1  UNL1        0.3439
     21 C           5.6130   -2.7463    0.0000 C.2     1  UNL1       -0.0733
     22 C           7.5245   -1.2300    0.0000 C.3     1  UNL1       -0.0378
     23 C           2.8764    0.2298    0.0000 C.ar    1  UNL1       -0.0561
     24 C           2.9705    2.2847    0.0000 C.ar    1  UNL1       -0.0405
     25 C           2.0000    0.7812    0.0000 C.ar    1  UNL1       -0.0614
     26 C           2.0473    1.8156    0.0000 C.ar    1  UNL1       -0.0600
     27 C           8.8574    1.9694    0.0000 C.3     1  UNL1        0.0818
     28 H           4.1749   -0.2377    0.0000 H       1  UNL1        0.0482
     29 H           5.3270    0.6034    0.0000 H       1  UNL1        0.0310
     30 H           5.1648   -0.1075    0.0000 H       1  UNL1        0.0310
     31 H           3.6590    0.5476    0.0000 H       1  UNL1        0.0288
     32 H           3.1993   -0.1013    0.0000 H       1  UNL1        0.0288
     33 H           7.3279   -0.4018    0.0000 H       1  UNL1        0.0603
     34 H           3.1002   -1.0375    0.0000 H       1  UNL1        0.0427
     35 H           3.5259   -1.7523    0.0000 H       1  UNL1        0.0427
     36 H           5.0088    2.5593    0.0000 H       1  UNL1        0.1489
     37 H           6.8855   -2.0486    0.0000 H       1  UNL1        0.0576
     38 H           4.0083   -2.4951    0.0000 H       1  UNL1        0.0470
     39 H           4.5541   -3.0947    0.0000 H       1  UNL1        0.0470
     40 H           5.7977   -3.3381    0.0000 H       1  UNL1        0.0582
     41 H           5.7387    2.5092    0.0000 H       1  UNL1        0.2122
     42 H           7.1379   -1.7148    0.0000 H       1  UNL1        0.0255
     43 H           8.0092   -1.6166    0.0000 H       1  UNL1        0.0255
     44 H           7.9111   -0.7453    0.0000 H       1  UNL1        0.0255
     45 H           2.8552   -0.3898    0.0000 H       1  UNL1        0.0621
     46 H           3.0060    2.9037    0.0000 H       1  UNL1        0.0636
     47 H           1.4506    0.4940    0.0000 H       1  UNL1        0.0618
     48 H           1.5264    2.1519    0.0000 H       1  UNL1        0.0618
     49 H           9.2318    1.4752    0.0000 H       1  UNL1        0.0661
     50 H           9.3517    2.3438    0.0000 H       1  UNL1        0.0661
     51 H           8.4831    2.4636    0.0000 H       1  UNL1        0.0661
@<TRIPOS>BOND
     1     1    11    1
     2     1    14    1
     3    10     2    1
     4     2    41    1
     5     3    20    1
     6     3    27    1
     7     4    20    2
     8     5     8    1
     9     5    16    1
    10     5    18    1
    11     6    10    1
    12     6    19    1
    13     6    36    1
    14     7     8    1
    15     7    10    1
    16     7    13    1
    17     7    15    1
    18     8     9    1
    19     8    28    1
    20     9    12    1
    21     9    14    1
    22     9    17    1
    23    10    11    1
    24    11    12    1
    25    11    20    1
    26    12    29    1
    27    12    30    1
    28    13    16    1
    29    13    31    1
    30    13    32    1
    31    14    22    1
    32    14    33    1
    33    15    19   ar
    34    15    23   ar
    35    16    34    1
    36    16    35    1
    37    17    21    2
    38    17    37    1
    39    18    21    1
    40    18    38    1
    41    18    39    1
    42    19    24   ar
    43    21    40    1
    44    22    42    1
    45    22    43    1
    46    22    44    1
    47    23    25   ar
    48    23    45    1
    49    24    26   ar
    50    24    46    1
    51    25    26   ar
    52    25    47    1
    53    26    48    1
    54    27    49    1
    55    27    50    1
    56    27    51    1
