@<TRIPOS>MOLECULE
IMPHY016673
 34 34 0 0 0
SMALL
GASTEIGER

@<TRIPOS>ATOM
      1 O           4.5981   -0.7500    0.0000 O.3     1  UNL1       -0.4221
      2 O           6.3301   -0.7500    0.0000 O.2     1  UNL1       -0.2504
      3 O           2.8660   -1.7500    0.0000 O.3     1  UNL1       -0.4914
      4 C           6.3301    2.2500    0.0000 C.3     1  UNL1       -0.0528
      5 C           6.3301    1.2500    0.0000 C.3     1  UNL1       -0.0430
      6 C           7.1962    2.7500    0.0000 C.3     1  UNL1       -0.0559
      7 C           5.4641    0.7500    0.0000 C.3     1  UNL1        0.0454
      8 C           7.1962    3.7500    0.0000 C.3     1  UNL1       -0.0653
      9 C           5.4641   -0.2500    0.0000 C.2     1  UNL1        0.3124
     10 C           4.5981   -1.7500    0.0000 C.ar    1  UNL1        0.1730
     11 C           3.7320   -2.2500    0.0000 C.ar    1  UNL1        0.1622
     12 C           5.4641   -2.2500    0.0000 C.ar    1  UNL1       -0.0156
     13 C           3.7320   -3.2500    0.0000 C.ar    1  UNL1       -0.0163
     14 C           5.4641   -3.2500    0.0000 C.ar    1  UNL1       -0.0581
     15 C           4.5981   -3.7500    0.0000 C.ar    1  UNL1       -0.0581
     16 C           2.0000   -2.2500    0.0000 C.3     1  UNL1        0.0790
     17 H           6.1181    2.8326    0.0000 H       1  UNL1        0.0265
     18 H           5.7196    2.1423    0.0000 H       1  UNL1        0.0265
     19 H           6.5422    0.6674    0.0000 H       1  UNL1        0.0270
     20 H           6.9407    1.3577    0.0000 H       1  UNL1        0.0270
     21 H           7.4082    2.1674    0.0000 H       1  UNL1        0.0263
     22 H           7.8067    2.8577    0.0000 H       1  UNL1        0.0263
     23 H           5.2520    1.3326    0.0000 H       1  UNL1        0.0378
     24 H           4.8535    0.6423    0.0000 H       1  UNL1        0.0378
     25 H           7.8162    3.7500    0.0000 H       1  UNL1        0.0230
     26 H           7.1962    4.3700    0.0000 H       1  UNL1        0.0230
     27 H           6.5762    3.7500    0.0000 H       1  UNL1        0.0230
     28 H           6.0010   -1.9400    0.0000 H       1  UNL1        0.0655
     29 H           3.1951   -3.5600    0.0000 H       1  UNL1        0.0655
     30 H           6.0010   -3.5600    0.0000 H       1  UNL1        0.0619
     31 H           4.5981   -4.3700    0.0000 H       1  UNL1        0.0619
     32 H           1.6900   -1.7131    0.0000 H       1  UNL1        0.0660
     33 H           1.4631   -2.5600    0.0000 H       1  UNL1        0.0660
     34 H           2.3100   -2.7869    0.0000 H       1  UNL1        0.0660
@<TRIPOS>BOND
     1     1     9    1
     2     1    10    1
     3     2     9    2
     4     3    11    1
     5     3    16    1
     6     4     5    1
     7     4     6    1
     8     4    17    1
     9     4    18    1
    10     5     7    1
    11     5    19    1
    12     5    20    1
    13     6     8    1
    14     6    21    1
    15     6    22    1
    16     7     9    1
    17     7    23    1
    18     7    24    1
    19     8    25    1
    20     8    26    1
    21     8    27    1
    22    10    11   ar
    23    10    12   ar
    24    11    13   ar
    25    12    14   ar
    26    12    28    1
    27    13    15   ar
    28    13    29    1
    29    14    15   ar
    30    14    30    1
    31    15    31    1
    32    16    32    1
    33    16    33    1
    34    16    34    1
