@<TRIPOS>MOLECULE
IMPHY004783
 50 53 0 0 0
SMALL
GASTEIGER

@<TRIPOS>ATOM
      1 O           5.4641   -1.0000    0.0000 O.3     1  UNL1       -0.3664
      2 O           2.8660   -0.5000    0.0000 O.3     1  UNL1       -0.3862
      3 O           2.8660   -2.5000    0.0000 O.3     1  UNL1       -0.3865
      4 O           4.5981   -3.5000    0.0000 O.3     1  UNL1       -0.3869
      5 O           6.3580    0.4653    0.0000 O.2     1  UNL1       -0.4540
      6 O           2.8660    0.5000    0.0000 O.3     1  UNL1       -0.4945
      7 O           4.5981    3.5000    0.0000 O.3     1  UNL1       -0.5058
      8 O           6.3465    3.5346    0.0000 O.2     1  UNL1       -0.2869
      9 O          10.7205   -1.0341    0.0000 O.3     1  UNL1       -0.5068
     10 C           3.7320   -1.0000    0.0000 C.3     1  UNL1        0.1139
     11 C           4.5981   -0.5000    0.0000 C.3     1  UNL1        0.1189
     12 C           3.7320   -2.0000    0.0000 C.3     1  UNL1        0.1117
     13 C           4.5981   -2.5000    0.0000 C.3     1  UNL1        0.1068
     14 C           5.4641   -2.0000    0.0000 C.3     1  UNL1        0.0770
     15 C           4.5981    0.5000    0.0000 C.ar    1  UNL1        0.0684
     16 C           5.4641    1.0000    0.0000 C.ar    1  UNL1        0.1520
     17 C           3.7320    1.0000    0.0000 C.ar    1  UNL1        0.1328
     18 C           5.4641    2.0000    0.0000 C.ar    1  UNL1        0.1058
     19 C           3.7320    2.0000    0.0000 C.ar    1  UNL1        0.0228
     20 C           4.5981    2.5000    0.0000 C.ar    1  UNL1        0.1347
     21 C           6.3580    2.5347    0.0000 C.ar    1  UNL1        0.1966
     22 C           7.2641    0.9792    0.0000 C.ar    1  UNL1        0.1392
     23 C           7.2641    2.0208    0.0000 C.ar    1  UNL1        0.0288
     24 C           8.1282    0.4758    0.0000 C.ar    1  UNL1        0.0176
     25 C           2.0000    1.0000    0.0000 C.3     1  UNL1        0.0788
     26 C           8.9962    0.9725    0.0000 C.ar    1  UNL1       -0.0476
     27 C           8.1244   -0.5241    0.0000 C.ar    1  UNL1       -0.0476
     28 C           9.8602    0.4692    0.0000 C.ar    1  UNL1       -0.0195
     29 C           8.9884   -1.0275    0.0000 C.ar    1  UNL1       -0.0195
     30 C           9.8564   -0.5308    0.0000 C.ar    1  UNL1        0.1169
     31 H           3.7320   -0.3800    0.0000 H       1  UNL1        0.0649
     32 H           5.3342   -0.0750    0.0000 H       1  UNL1        0.0675
     33 H           3.7320   -2.6200    0.0000 H       1  UNL1        0.0647
     34 H           5.1350   -2.8100    0.0000 H       1  UNL1        0.0643
     35 H           5.6762   -2.5826    0.0000 H       1  UNL1        0.0587
     36 H           6.0747   -1.8923    0.0000 H       1  UNL1        0.0587
     37 H           2.3291   -0.8100    0.0000 H       1  UNL1        0.2100
     38 H           2.8660   -3.1200    0.0000 H       1  UNL1        0.2100
     39 H           5.1350   -3.8100    0.0000 H       1  UNL1        0.2100
     40 H           3.1951    2.3100    0.0000 H       1  UNL1        0.0691
     41 H           7.7998    2.3329    0.0000 H       1  UNL1        0.0693
     42 H           4.0611    3.8100    0.0000 H       1  UNL1        0.2922
     43 H           2.3100    1.5369    0.0000 H       1  UNL1        0.0660
     44 H           1.4631    1.3100    0.0000 H       1  UNL1        0.0660
     45 H           1.6900    0.4631    0.0000 H       1  UNL1        0.0660
     46 H           8.9985    1.5925    0.0000 H       1  UNL1        0.0626
     47 H           7.5862   -0.8321    0.0000 H       1  UNL1        0.0626
     48 H          10.3984    0.7771    0.0000 H       1  UNL1        0.0654
     49 H           8.9860   -1.6475    0.0000 H       1  UNL1        0.0654
     50 H          11.2586   -0.7262    0.0000 H       1  UNL1        0.2921
@<TRIPOS>BOND
     1     1    11    1
     2     1    14    1
     3     2    10    1
     4     2    37    1
     5    12     3    1
     6     3    38    1
     7    13     4    1
     8     4    39    1
     9     5    16   ar
    10     5    22   ar
    11     6    17    1
    12     6    25    1
    13     7    20    1
    14     7    42    1
    15     8    21    2
    16     9    30    1
    17     9    50    1
    18    10    11    1
    19    10    12    1
    20    10    31    1
    21    11    15    1
    22    11    32    1
    23    12    13    1
    24    12    33    1
    25    13    14    1
    26    13    34    1
    27    14    35    1
    28    14    36    1
    29    15    16   ar
    30    15    17   ar
    31    16    18   ar
    32    17    19   ar
    33    18    20   ar
    34    18    21   ar
    35    19    20   ar
    36    19    40    1
    37    21    23   ar
    38    22    23   ar
    39    22    24    1
    40    23    41    1
    41    24    26   ar
    42    24    27   ar
    43    25    43    1
    44    25    44    1
    45    25    45    1
    46    26    28   ar
    47    26    46    1
    48    27    29   ar
    49    27    47    1
    50    28    30   ar
    51    28    48    1
    52    29    30   ar
    53    29    49    1
