@<TRIPOS>MOLECULE
IMPHY006646
 33 35 0 0 0
SMALL
GASTEIGER

@<TRIPOS>ATOM
      1 O           7.3424   -0.6779    0.0000 O.2     1  UNL1       -0.4625
      2 O           3.7702   -0.4480    0.0000 O.2     1  UNL1       -0.4217
      3 O           2.0000   -0.4585    0.0000 O.2     1  UNL1       -0.2452
      4 C           5.5301   -0.4827    0.0000 C.ar    1  UNL1        0.0420
      5 C           6.3961   -0.9827    0.0000 C.ar    1  UNL1        0.1418
      6 C           4.6641   -0.9827    0.0000 C.ar    1  UNL1        0.1460
      7 C           5.5301    0.5173    0.0000 C.3     1  UNL1       -0.0022
      8 C           6.3961   -1.9827    0.0000 C.ar    1  UNL1        0.0212
      9 C           4.6641   -1.9827    0.0000 C.ar    1  UNL1        0.0187
     10 C           5.5301   -2.4827    0.0000 C.ar    1  UNL1       -0.0403
     11 C           6.3961    1.0173    0.0000 C.2     1  UNL1       -0.0807
     12 C           7.3424   -2.2874    0.0000 C.ar    1  UNL1       -0.0161
     13 C           3.7702   -2.5173    0.0000 C.ar    1  UNL1       -0.0443
     14 C           7.9260   -1.4827    0.0000 C.ar    1  UNL1        0.0931
     15 C           6.3961    2.0173    0.0000 C.2     1  UNL1       -0.0793
     16 C           2.8641   -2.0035    0.0000 C.ar    1  UNL1        0.0236
     17 C           2.8641   -0.9619    0.0000 C.ar    1  UNL1        0.3372
     18 C           7.2622    2.5173    0.0000 C.3     1  UNL1       -0.0440
     19 C           5.5301    2.5173    0.0000 C.3     1  UNL1       -0.0440
     20 H           5.3181    1.0999    0.0000 H       1  UNL1        0.0358
     21 H           4.9196    0.4097    0.0000 H       1  UNL1        0.0358
     22 H           5.5301   -3.1027    0.0000 H       1  UNL1        0.0632
     23 H           6.9331    0.7073    0.0000 H       1  UNL1        0.0575
     24 H           7.5350   -2.8767    0.0000 H       1  UNL1        0.0655
     25 H           3.7773   -3.1373    0.0000 H       1  UNL1        0.0627
     26 H           8.5460   -1.4827    0.0000 H       1  UNL1        0.1029
     27 H           2.3284   -2.3156    0.0000 H       1  UNL1        0.0689
     28 H           5.8401    3.0543    0.0000 H       1  UNL1        0.0274
     29 H           4.9932    2.8273    0.0000 H       1  UNL1        0.0274
     30 H           5.2201    1.9804    0.0000 H       1  UNL1        0.0274
     31 H           7.5722    1.9804    0.0000 H       1  UNL1        0.0274
     32 H           7.7991    2.8273    0.0000 H       1  UNL1        0.0274
     33 H           6.9522    3.0543    0.0000 H       1  UNL1        0.0274
@<TRIPOS>BOND
     1     1     5   ar
     2     1    14   ar
     3     2     6   ar
     4     2    17   ar
     5     3    17    2
     6     4     5   ar
     7     4     6   ar
     8     4     7    1
     9     5     8   ar
    10     6     9   ar
    11     7    11    1
    12     7    20    1
    13     7    21    1
    14     8    10   ar
    15     8    12   ar
    16     9    10   ar
    17     9    13   ar
    18    10    22    1
    19    11    15    2
    20    11    23    1
    21    12    14   ar
    22    12    24    1
    23    13    16   ar
    24    13    25    1
    25    14    26    1
    26    15    18    1
    27    15    19    1
    28    16    17   ar
    29    16    27    1
    30    18    31    1
    31    18    32    1
    32    18    33    1
    33    19    28    1
    34    19    29    1
    35    19    30    1
