@<TRIPOS>MOLECULE
IMPHY009772
 40 41 0 0 0
SMALL
GASTEIGER

@<TRIPOS>ATOM
      1 O           6.6519   -0.0818    0.0000 O.3     1  UNL1       -0.3875
      2 C           2.9390   -1.7202    0.0000 C.3     1  UNL1       -0.0310
      3 C           3.2877   -0.7741    0.0000 C.3     1  UNL1       -0.0290
      4 C           4.2274   -1.1162    0.0000 C.3     1  UNL1       -0.0139
      5 C           3.8865   -2.0650    0.0000 C.3     1  UNL1       -0.0407
      6 C           2.7877    0.0919    0.0000 C.3     1  UNL1       -0.0455
      7 C           2.5950   -2.6592    0.0000 C.3     1  UNL1       -0.0595
      8 C           2.0000   -1.3762    0.0000 C.3     1  UNL1       -0.0595
      9 C           5.1671   -0.7741    0.0000 C.2     1  UNL1       -0.0452
     10 C           2.9614    1.0767    0.0000 C.3     1  UNL1       -0.0317
     11 C           5.6671    0.0919    0.0000 C.3     1  UNL1        0.0766
     12 C           5.4935    1.0767    0.0000 C.3     1  UNL1       -0.0193
     13 C           3.7274    1.7195    0.0000 C.2     1  UNL1       -0.0765
     14 C           4.7274    1.7195    0.0000 C.3     1  UNL1       -0.0294
     15 C           5.8099   -1.5402    0.0000 C.2     1  UNL1       -0.0968
     16 C           3.3854    2.6592    0.0000 C.2     1  UNL1       -0.0994
     17 H           2.6700   -0.8269    0.0000 H       1  UNL1        0.0312
     18 H           4.6667   -1.5537    0.0000 H       1  UNL1        0.0349
     19 H           3.6752   -2.6479    0.0000 H       1  UNL1        0.0276
     20 H           4.4697   -2.2755    0.0000 H       1  UNL1        0.0276
     21 H           2.2337    0.3701    0.0000 H       1  UNL1        0.0271
     22 H           2.3623   -0.3591    0.0000 H       1  UNL1        0.0271
     23 H           2.0129   -2.4459    0.0000 H       1  UNL1        0.0235
     24 H           2.3818   -3.2414    0.0000 H       1  UNL1        0.0235
     25 H           3.1772   -2.8724    0.0000 H       1  UNL1        0.0235
     26 H           2.2132   -0.7941    0.0000 H       1  UNL1        0.0235
     27 H           1.4178   -1.1630    0.0000 H       1  UNL1        0.0235
     28 H           1.7868   -1.9584    0.0000 H       1  UNL1        0.0235
     29 H           2.7158    1.6460    0.0000 H       1  UNL1        0.0310
     30 H           2.3456    1.0047    0.0000 H       1  UNL1        0.0310
     31 H           6.1055    0.5303    0.0000 H       1  UNL1        0.0640
     32 H           6.1093    1.0047    0.0000 H       1  UNL1        0.0296
     33 H           5.7390    1.6460    0.0000 H       1  UNL1        0.0296
     34 H           5.2454    2.0602    0.0000 H       1  UNL1        0.0311
     35 H           4.5496    2.3134    0.0000 H       1  UNL1        0.0311
     36 H           5.5978   -2.1228    0.0000 H       1  UNL1        0.0535
     37 H           6.4205   -1.4325    0.0000 H       1  UNL1        0.0535
     38 H           7.0505    0.3932    0.0000 H       1  UNL1        0.2102
     39 H           3.7839    3.1341    0.0000 H       1  UNL1        0.0534
     40 H           2.7748    2.7668    0.0000 H       1  UNL1        0.0534
@<TRIPOS>BOND
     1    11     1    1
     2     1    38    1
     3     2     3    1
     4     2     5    1
     5     2     7    1
     6     2     8    1
     7     3     4    1
     8     3     6    1
     9     3    17    1
    10     4     5    1
    11     4     9    1
    12     4    18    1
    13     5    19    1
    14     5    20    1
    15     6    10    1
    16     6    21    1
    17     6    22    1
    18     7    23    1
    19     7    24    1
    20     7    25    1
    21     8    26    1
    22     8    27    1
    23     8    28    1
    24     9    11    1
    25     9    15    2
    26    10    13    1
    27    10    29    1
    28    10    30    1
    29    11    12    1
    30    11    31    1
    31    12    14    1
    32    12    32    1
    33    12    33    1
    34    13    14    1
    35    13    16    2
    36    14    34    1
    37    14    35    1
    38    15    36    1
    39    15    37    1
    40    16    39    1
    41    16    40    1
