@<TRIPOS>MOLECULE
IMPHY017152
 24 25 0 0 0
SMALL
GASTEIGER

@<TRIPOS>ATOM
      1 O           5.5686    2.6433    0.0000 O.2     1  UNL1       -0.4548
      2 C           2.8660   -0.8512    0.0000 C.ar    1  UNL1       -0.0356
      3 C           2.8660    0.1488    0.0000 C.3     1  UNL1        0.0346
      4 C           2.0000   -1.3512    0.0000 C.ar    1  UNL1       -0.0577
      5 C           3.7320   -1.3512    0.0000 C.ar    1  UNL1       -0.0577
      6 C           2.0000   -2.3512    0.0000 C.ar    1  UNL1       -0.0615
      7 C           3.7320   -2.3512    0.0000 C.ar    1  UNL1       -0.0615
      8 C           2.8660   -2.8512    0.0000 C.ar    1  UNL1       -0.0617
      9 C           3.7320    0.6488    0.0000 C.1     1  UNL1       -0.0893
     10 C           5.4641    1.6488    0.0000 C.ar    1  UNL1        0.1774
     11 C           6.3776    1.2421    0.0000 C.ar    1  UNL1       -0.0078
     12 C           7.0468    1.9852    0.0000 C.ar    1  UNL1       -0.0226
     13 C           4.5981    1.1488    0.0000 C.1     1  UNL1       -0.0282
     14 C           6.5468    2.8512    0.0000 C.ar    1  UNL1        0.0935
     15 H           2.6540    0.7314    0.0000 H       1  UNL1        0.0446
     16 H           2.2554    0.0411    0.0000 H       1  UNL1        0.0446
     17 H           1.4631   -1.0412    0.0000 H       1  UNL1        0.0621
     18 H           4.2690   -1.0412    0.0000 H       1  UNL1        0.0621
     19 H           1.4631   -2.6612    0.0000 H       1  UNL1        0.0618
     20 H           4.2690   -2.6612    0.0000 H       1  UNL1        0.0618
     21 H           2.8660   -3.4712    0.0000 H       1  UNL1        0.0618
     22 H           6.5066    0.6356    0.0000 H       1  UNL1        0.0662
     23 H           7.6634    1.9204    0.0000 H       1  UNL1        0.0649
     24 H           6.7990    3.4176    0.0000 H       1  UNL1        0.1030
@<TRIPOS>BOND
     1     1    10   ar
     2     1    14   ar
     3     2     3    1
     4     2     4   ar
     5     2     5   ar
     6     3     9    1
     7     3    15    1
     8     3    16    1
     9     4     6   ar
    10     4    17    1
    11     5     7   ar
    12     5    18    1
    13     6     8   ar
    14     6    19    1
    15     7     8   ar
    16     7    20    1
    17     8    21    1
    18     9    13    3
    19    10    11   ar
    20    10    13    1
    21    11    12   ar
    22    11    22    1
    23    12    14   ar
    24    12    23    1
    25    14    24    1
