@<TRIPOS>MOLECULE
IMPHY000482
 25 27 0 0 0
SMALL
GASTEIGER

@<TRIPOS>ATOM
      1 C        2549.8300 2568.3900    0.0000 C.2     1  UNL1        0.3877
      2 O        2584.4700 2588.4400    0.0000 O.co2   1  UNL1       -0.2406
      3 O        2515.1900 2588.4400    0.0000 O.co2   1  UNL1       -0.2406
      4 C        2549.8300 2528.3900    0.0000 C.ar    1  UNL1        0.0827
      5 C        2515.4800 2508.4400    0.0000 C.ar    1  UNL1        0.0333
      6 C        2486.9000 2537.0200    0.0000 C.3     1  UNL1        0.1454
      7 C        2446.9000 2537.0200    0.0000 C.2     1  UNL1        0.0721
      8 C        2446.9000 2577.0200    0.0000 C.2     1  UNL1        0.3845
      9 O        2412.2600 2596.9700    0.0000 O.co2   1  UNL1       -0.2409
     10 O        2481.5400 2596.9700    0.0000 O.co2   1  UNL1       -0.2409
     11 C        2418.4100 2508.4400    0.0000 C.2     1  UNL1        0.0469
     12 C        2418.4100 2468.4400    0.0000 C.2     1  UNL1        0.2461
     13 C        2446.9000 2439.8500    0.0000 C.3     1  UNL1        0.3908
     14 C        2485.5100 2481.3400    0.0000 C.3     1  UNL1        0.4245
     15 O        2447.9900 2494.9400    0.0000 O.2     1  UNL1       -0.2674
     16 O        2520.0500 2444.4200    0.0000 O.2     1  UNL1       -0.2674
     17 O        2486.9000 2439.8500    0.0000 O.3     1  UNL1       -0.4416
     18 C        2515.4800 2468.4400    0.0000 C.ar    1  UNL1        0.1805
     19 C        2549.8300 2448.3900    0.0000 C.ar    1  UNL1        0.2675
     20 C        2584.0700 2468.4400    0.0000 C.ar    1  UNL1        0.2375
     21 C        2584.0700 2508.4400    0.0000 C.ar    1  UNL1        0.0519
     22 O        2618.7100 2448.3900    0.0000 O.3     1  UNL1       -0.2830
     23 O        2549.8300 2408.3900    0.0000 O.3     1  UNL1       -0.2799
     24 O        2431.3200 2403.0300    0.0000 O.3     1  UNL1       -0.1645
     25 O        2381.2900 2453.4500    0.0000 O.2     1  UNL1       -0.2846
@<TRIPOS>BOND
     1     1     2   ar
     2     1     3   ar
     3     1     4    1
     4     4     5   ar
     5     4    21   ar
     6     5     6    1
     7     5    18   ar
     8     6     7    1
     9     6    14    1
    10     7     8    1
    11     7    11    2
    12     8     9   ar
    13     8    10   ar
    14    11    12    1
    15    12    25    2
    16    13    12    1
    17    13    24    1
    18    14    13    1
    19    14    15    1
    20    14    16    1
    21    17    13    1
    22    18    17    1
    23    18    19   ar
    24    19    23    1
    25    20    19   ar
    26    20    22    1
    27    21    20   ar
