@<TRIPOS>MOLECULE
IMPHY007775
 54 57 0 0 0
SMALL
GASTEIGER

@<TRIPOS>ATOM
      1 O           3.9061   -1.6305    0.0000 O.3     1  UNL1       -0.4814
      2 O           7.4260   -1.6305    0.0000 O.2     1  UNL1       -0.4618
      3 O           5.6660    1.4042    0.0000 O.3     1  UNL1       -0.5052
      4 O           7.4144    1.4388    0.0000 O.2     1  UNL1       -0.2863
      5 O          11.7884    1.9383    0.0000 O.3     1  UNL1       -0.5065
      6 C           3.0000   -1.1166    0.0000 C.3     1  UNL1        0.1235
      7 C           4.8000   -0.0958    0.0000 C.ar    1  UNL1        0.0588
      8 C           4.8000   -1.0958    0.0000 C.ar    1  UNL1        0.1359
      9 C           3.0000   -0.0750    0.0000 C.2     1  UNL1       -0.0408
     10 C           6.5320   -0.0958    0.0000 C.ar    1  UNL1        0.1066
     11 C           3.9061    0.4388    0.0000 C.2     1  UNL1       -0.0478
     12 C           5.6660    0.4042    0.0000 C.ar    1  UNL1        0.1418
     13 C           2.0000   -1.1205    0.0000 C.3     1  UNL1       -0.0215
     14 C           2.5033   -1.9846    0.0000 C.3     1  UNL1       -0.0215
     15 C           6.5320   -1.0958    0.0000 C.ar    1  UNL1        0.1454
     16 C           5.6660   -1.5958    0.0000 C.ar    1  UNL1        0.0239
     17 C           7.4260    0.4388    0.0000 C.ar    1  UNL1        0.2037
     18 C           8.3321   -0.0750    0.0000 C.ar    1  UNL1        0.0644
     19 C           9.1962    0.4283    0.0000 C.ar    1  UNL1       -0.0108
     20 C           8.3321   -1.1166    0.0000 C.ar    1  UNL1        0.1038
     21 C          10.9282    0.4350    0.0000 C.ar    1  UNL1       -0.0017
     22 C          10.0641   -0.0683    0.0000 C.ar    1  UNL1       -0.0469
     23 C           9.1923    1.4283    0.0000 C.ar    1  UNL1       -0.0504
     24 C          11.7961   -0.0617    0.0000 C.3     1  UNL1       -0.0058
     25 C          10.9243    1.4350    0.0000 C.ar    1  UNL1        0.1203
     26 C          10.0564    1.9316    0.0000 C.ar    1  UNL1       -0.0193
     27 C          11.8000   -1.0617    0.0000 C.2     1  UNL1       -0.0809
     28 C          12.6679   -1.5583    0.0000 C.2     1  UNL1       -0.0793
     29 C          12.6718   -2.5583    0.0000 C.3     1  UNL1       -0.0440
     30 C          13.5320   -1.0550    0.0000 C.3     1  UNL1       -0.0440
     31 H           2.4643    0.2370    0.0000 H       1  UNL1        0.0611
     32 H           3.9132    1.0588    0.0000 H       1  UNL1        0.0624
     33 H           1.9652   -1.6767    0.0000 H       1  UNL1        0.0271
     34 H           1.9976   -0.5005    0.0000 H       1  UNL1        0.0271
     35 H           1.3800   -1.1229    0.0000 H       1  UNL1        0.0271
     36 H           2.0024   -1.7405    0.0000 H       1  UNL1        0.0271
     37 H           2.1954   -2.5227    0.0000 H       1  UNL1        0.0271
     38 H           3.0415   -2.2925    0.0000 H       1  UNL1        0.0271
     39 H           5.6660   -2.2158    0.0000 H       1  UNL1        0.0691
     40 H           8.8678   -1.4287    0.0000 H       1  UNL1        0.1037
     41 H          10.0665   -0.6883    0.0000 H       1  UNL1        0.0628
     42 H           8.6542    1.7362    0.0000 H       1  UNL1        0.0625
     43 H          12.4071   -0.1670    0.0000 H       1  UNL1        0.0357
     44 H          12.0059    0.5218    0.0000 H       1  UNL1        0.0357
     45 H           5.1291    1.7142    0.0000 H       1  UNL1        0.2922
     46 H          10.0540    2.5516    0.0000 H       1  UNL1        0.0654
     47 H          11.2643   -1.3737    0.0000 H       1  UNL1        0.0575
     48 H          11.7860    2.5583    0.0000 H       1  UNL1        0.2921
     49 H          12.0518   -2.5607    0.0000 H       1  UNL1        0.0274
     50 H          13.8441   -1.5907    0.0000 H       1  UNL1        0.0274
     51 H          14.0678   -0.7429    0.0000 H       1  UNL1        0.0274
     52 H          13.2200   -0.5192    0.0000 H       1  UNL1        0.0274
     53 H          12.6742   -3.1783    0.0000 H       1  UNL1        0.0274
     54 H          13.2918   -2.5559    0.0000 H       1  UNL1        0.0274
@<TRIPOS>BOND
     1     1     6    1
     2     1     8    1
     3     2    15   ar
     4     2    20   ar
     5     3    12    1
     6     3    45    1
     7     4    17    2
     8     5    25    1
     9     5    48    1
    10     6     9    1
    11     6    13    1
    12     6    14    1
    13     7     8   ar
    14     7    11    1
    15     7    12   ar
    16     8    16   ar
    17     9    11    2
    18     9    31    1
    19    10    12   ar
    20    10    15   ar
    21    10    17   ar
    22    11    32    1
    23    13    34    1
    24    13    35    1
    25    13    36    1
    26    14    33    1
    27    14    37    1
    28    14    38    1
    29    15    16   ar
    30    16    39    1
    31    17    18   ar
    32    18    19    1
    33    18    20   ar
    34    19    22   ar
    35    19    23   ar
    36    20    40    1
    37    21    22   ar
    38    21    24    1
    39    21    25   ar
    40    22    41    1
    41    23    26   ar
    42    23    42    1
    43    24    27    1
    44    24    43    1
    45    24    44    1
    46    25    26   ar
    47    26    46    1
    48    27    28    2
    49    27    47    1
    50    28    29    1
    51    28    30    1
    52    29    49    1
    53    29    53    1
    54    29    54    1
    55    30    50    1
    56    30    51    1
    57    30    52    1
