@<TRIPOS>MOLECULE
IMPHY012818
 47 47 0 0 0
SMALL
GASTEIGER

@<TRIPOS>ATOM
      1 O           3.9030   -5.9330    0.0000 O.3     1  UNL1       -0.3674
      2 O           7.7331    4.4330    0.0000 O.3     1  UNL1       -0.4648
      3 O           6.8671    5.9330    0.0000 O.2     1  UNL1       -0.2512
      4 C           5.1350   -0.0670    0.0000 C.3     1  UNL1       -0.0531
      5 C           4.2690   -0.5670    0.0000 C.3     1  UNL1       -0.0530
      6 C           5.1350    0.9330    0.0000 C.3     1  UNL1       -0.0531
      7 C           4.2690   -1.5670    0.0000 C.3     1  UNL1       -0.0528
      8 C           6.0010    1.4330    0.0000 C.3     1  UNL1       -0.0530
      9 C           3.4030   -2.0670    0.0000 C.3     1  UNL1       -0.0496
     10 C           6.0010    2.4330    0.0000 C.3     1  UNL1       -0.0500
     11 C           3.4030   -5.0670    0.0000 C.3     1  UNL1        0.1002
     12 C           3.4030   -3.0670    0.0000 C.3     1  UNL1       -0.0347
     13 C           4.4030   -5.0670    0.0000 C.3     1  UNL1        0.0783
     14 C           6.8671    2.9330    0.0000 C.3     1  UNL1       -0.0185
     15 C           2.5369   -4.5670    0.0000 C.2     1  UNL1       -0.0574
     16 C           2.5369   -3.5670    0.0000 C.2     1  UNL1       -0.0854
     17 C           6.8671    3.9330    0.0000 C.3     1  UNL1        0.0924
     18 C           7.7331    5.4330    0.0000 C.2     1  UNL1        0.3039
     19 C           8.5991    5.9330    0.0000 C.3     1  UNL1        0.0332
     20 H           5.3471   -0.6496    0.0000 H       1  UNL1        0.0265
     21 H           5.7456    0.0407    0.0000 H       1  UNL1        0.0265
     22 H           4.0569    0.0156    0.0000 H       1  UNL1        0.0265
     23 H           3.6584   -0.6746    0.0000 H       1  UNL1        0.0265
     24 H           4.9230    1.5156    0.0000 H       1  UNL1        0.0265
     25 H           4.5244    0.8254    0.0000 H       1  UNL1        0.0265
     26 H           4.4810   -2.1496    0.0000 H       1  UNL1        0.0265
     27 H           4.8796   -1.4593    0.0000 H       1  UNL1        0.0265
     28 H           6.2131    0.8504    0.0000 H       1  UNL1        0.0265
     29 H           6.6116    1.5407    0.0000 H       1  UNL1        0.0265
     30 H           3.1909   -1.4844    0.0000 H       1  UNL1        0.0268
     31 H           2.7924   -2.1747    0.0000 H       1  UNL1        0.0268
     32 H           5.7890    3.0156    0.0000 H       1  UNL1        0.0266
     33 H           5.3905    2.3253    0.0000 H       1  UNL1        0.0266
     34 H           2.9646   -5.5054    0.0000 H       1  UNL1        0.0663
     35 H           3.6150   -3.6496    0.0000 H       1  UNL1        0.0307
     36 H           4.0135   -2.9593    0.0000 H       1  UNL1        0.0307
     37 H           4.9856   -5.2790    0.0000 H       1  UNL1        0.0589
     38 H           4.5106   -4.4564    0.0000 H       1  UNL1        0.0589
     39 H           7.0791    2.3504    0.0000 H       1  UNL1        0.0298
     40 H           7.4776    3.0407    0.0000 H       1  UNL1        0.0298
     41 H           2.0000   -4.8770    0.0000 H       1  UNL1        0.0595
     42 H           2.0000   -3.2570    0.0000 H       1  UNL1        0.0570
     43 H           6.6550    4.5156    0.0000 H       1  UNL1        0.0697
     44 H           6.2565    3.8254    0.0000 H       1  UNL1        0.0697
     45 H           8.9091    5.3961    0.0000 H       1  UNL1        0.0342
     46 H           9.1360    6.2430    0.0000 H       1  UNL1        0.0342
     47 H           8.2891    6.4700    0.0000 H       1  UNL1        0.0342
@<TRIPOS>BOND
     1     1    11    1
     2     1    13    1
     3     2    17    1
     4     2    18    1
     5     3    18    2
     6     4     5    1
     7     4     6    1
     8     4    20    1
     9     4    21    1
    10     5     7    1
    11     5    22    1
    12     5    23    1
    13     6     8    1
    14     6    24    1
    15     6    25    1
    16     7     9    1
    17     7    26    1
    18     7    27    1
    19     8    10    1
    20     8    28    1
    21     8    29    1
    22     9    12    1
    23     9    30    1
    24     9    31    1
    25    10    14    1
    26    10    32    1
    27    10    33    1
    28    11    13    1
    29    11    15    1
    30    11    34    1
    31    12    16    1
    32    12    35    1
    33    12    36    1
    34    13    37    1
    35    13    38    1
    36    14    17    1
    37    14    39    1
    38    14    40    1
    39    15    16    2
    40    15    41    1
    41    16    42    1
    42    17    43    1
    43    17    44    1
    44    18    19    1
    45    19    45    1
    46    19    46    1
    47    19    47    1
