@<TRIPOS>MOLECULE
IMPHY013129
 93 92 0 0 0
SMALL
GASTEIGER

@<TRIPOS>ATOM
      1 O          16.7224   -0.7500    0.0000 O.2     1  UNL1       -0.2970
      2 O          18.4545   -0.7500    0.0000 O.2     1  UNL1       -0.2970
      3 C           9.7942    0.2500    0.0000 C.3     1  UNL1       -0.0531
      4 C           8.9282    0.7500    0.0000 C.3     1  UNL1       -0.0531
      5 C          10.6603    0.7500    0.0000 C.3     1  UNL1       -0.0531
      6 C           8.0622    0.2500    0.0000 C.3     1  UNL1       -0.0531
      7 C          11.5263    0.2500    0.0000 C.3     1  UNL1       -0.0531
      8 C           7.1962    0.7500    0.0000 C.3     1  UNL1       -0.0531
      9 C          12.3923    0.7500    0.0000 C.3     1  UNL1       -0.0531
     10 C           6.3301    0.2500    0.0000 C.3     1  UNL1       -0.0531
     11 C          13.2583    0.2500    0.0000 C.3     1  UNL1       -0.0530
     12 C           5.4641    0.7500    0.0000 C.3     1  UNL1       -0.0531
     13 C          14.1244    0.7500    0.0000 C.3     1  UNL1       -0.0527
     14 C          22.7846    0.7500    0.0000 C.3     1  UNL1       -0.0531
     15 C           4.5981    0.2500    0.0000 C.3     1  UNL1       -0.0531
     16 C          21.9186    0.2500    0.0000 C.3     1  UNL1       -0.0530
     17 C          23.6506    0.2500    0.0000 C.3     1  UNL1       -0.0531
     18 C          14.9904    0.2500    0.0000 C.3     1  UNL1       -0.0464
     19 C          21.0526    0.7500    0.0000 C.3     1  UNL1       -0.0527
     20 C          24.5167    0.7500    0.0000 C.3     1  UNL1       -0.0531
     21 C          20.1865    0.2500    0.0000 C.3     1  UNL1       -0.0464
     22 C          25.3827    0.2500    0.0000 C.3     1  UNL1       -0.0531
     23 C           3.7320    0.7500    0.0000 C.3     1  UNL1       -0.0533
     24 C          15.8564    0.7500    0.0000 C.3     1  UNL1        0.0062
     25 C          19.3205    0.7500    0.0000 C.3     1  UNL1        0.0062
     26 C          26.2487    0.7500    0.0000 C.3     1  UNL1       -0.0533
     27 C           2.8660    0.2500    0.0000 C.3     1  UNL1       -0.0559
     28 C          16.7224    0.2500    0.0000 C.2     1  UNL1        0.1404
     29 C          17.5885    0.7500    0.0000 C.3     1  UNL1        0.0643
     30 C          18.4545    0.2500    0.0000 C.2     1  UNL1        0.1404
     31 C          27.1147    0.2500    0.0000 C.3     1  UNL1       -0.0559
     32 C           2.0000    0.7500    0.0000 C.3     1  UNL1       -0.0653
     33 C          27.9808    0.7500    0.0000 C.3     1  UNL1       -0.0653
     34 H           9.3957   -0.2249    0.0000 H       1  UNL1        0.0265
     35 H          10.1928   -0.2249    0.0000 H       1  UNL1        0.0265
     36 H           9.3267    1.2250    0.0000 H       1  UNL1        0.0265
     37 H           8.5297    1.2250    0.0000 H       1  UNL1        0.0265
     38 H          11.0588    1.2250    0.0000 H       1  UNL1        0.0265
     39 H          10.2617    1.2250    0.0000 H       1  UNL1        0.0265
     40 H           7.6636   -0.2249    0.0000 H       1  UNL1        0.0265
     41 H           8.4607   -0.2249    0.0000 H       1  UNL1        0.0265
     42 H          11.1278   -0.2249    0.0000 H       1  UNL1        0.0265
     43 H          11.9248   -0.2249    0.0000 H       1  UNL1        0.0265
     44 H           7.5947    1.2250    0.0000 H       1  UNL1        0.0265
     45 H           6.7976    1.2250    0.0000 H       1  UNL1        0.0265
     46 H          12.7908    1.2250    0.0000 H       1  UNL1        0.0265
     47 H          11.9938    1.2250    0.0000 H       1  UNL1        0.0265
     48 H           5.9316   -0.2249    0.0000 H       1  UNL1        0.0265
     49 H           6.7287   -0.2249    0.0000 H       1  UNL1        0.0265
     50 H          12.8598   -0.2249    0.0000 H       1  UNL1        0.0265
     51 H          13.6569   -0.2249    0.0000 H       1  UNL1        0.0265
     52 H           5.8626    1.2250    0.0000 H       1  UNL1        0.0265
     53 H           5.0656    1.2250    0.0000 H       1  UNL1        0.0265
     54 H          14.5229    1.2250    0.0000 H       1  UNL1        0.0265
     55 H          13.7258    1.2250    0.0000 H       1  UNL1        0.0265
     56 H          23.1831    1.2250    0.0000 H       1  UNL1        0.0265
     57 H          22.3861    1.2250    0.0000 H       1  UNL1        0.0265
     58 H           4.1996   -0.2249    0.0000 H       1  UNL1        0.0265
     59 H           4.9966   -0.2249    0.0000 H       1  UNL1        0.0265
     60 H          21.5201   -0.2249    0.0000 H       1  UNL1        0.0265
     61 H          22.3171   -0.2249    0.0000 H       1  UNL1        0.0265
     62 H          23.2521   -0.2249    0.0000 H       1  UNL1        0.0265
     63 H          24.0492   -0.2249    0.0000 H       1  UNL1        0.0265
     64 H          14.5919   -0.2249    0.0000 H       1  UNL1        0.0269
     65 H          15.3889   -0.2249    0.0000 H       1  UNL1        0.0269
     66 H          21.4511    1.2250    0.0000 H       1  UNL1        0.0265
     67 H          20.6540    1.2250    0.0000 H       1  UNL1        0.0265
     68 H          24.9152    1.2250    0.0000 H       1  UNL1        0.0265
     69 H          24.1181    1.2250    0.0000 H       1  UNL1        0.0265
     70 H          19.7880   -0.2249    0.0000 H       1  UNL1        0.0269
     71 H          20.5851   -0.2249    0.0000 H       1  UNL1        0.0269
     72 H          24.9842   -0.2249    0.0000 H       1  UNL1        0.0265
     73 H          25.7812   -0.2249    0.0000 H       1  UNL1        0.0265
     74 H           4.1306    1.2250    0.0000 H       1  UNL1        0.0265
     75 H           3.3335    1.2250    0.0000 H       1  UNL1        0.0265
     76 H          16.2549    1.2250    0.0000 H       1  UNL1        0.0342
     77 H          15.4579    1.2250    0.0000 H       1  UNL1        0.0342
     78 H          19.7190    1.2250    0.0000 H       1  UNL1        0.0342
     79 H          18.9220    1.2250    0.0000 H       1  UNL1        0.0342
     80 H          26.6472    1.2250    0.0000 H       1  UNL1        0.0265
     81 H          25.8502    1.2250    0.0000 H       1  UNL1        0.0265
     82 H           2.4675   -0.2249    0.0000 H       1  UNL1        0.0263
     83 H           3.2646   -0.2249    0.0000 H       1  UNL1        0.0263
     84 H          17.9870    1.2250    0.0000 H       1  UNL1        0.0419
     85 H          17.1899    1.2250    0.0000 H       1  UNL1        0.0419
     86 H          26.7162   -0.2249    0.0000 H       1  UNL1        0.0263
     87 H          27.5133   -0.2249    0.0000 H       1  UNL1        0.0263
     88 H           2.3100    1.2869    0.0000 H       1  UNL1        0.0230
     89 H           1.4631    1.0600    0.0000 H       1  UNL1        0.0230
     90 H           1.6900    0.2131    0.0000 H       1  UNL1        0.0230
     91 H          28.2908    0.2131    0.0000 H       1  UNL1        0.0230
     92 H          28.5177    1.0600    0.0000 H       1  UNL1        0.0230
     93 H          27.6708    1.2869    0.0000 H       1  UNL1        0.0230
@<TRIPOS>BOND
     1     1    28    2
     2     2    30    2
     3     3     4    1
     4     3     5    1
     5     3    34    1
     6     3    35    1
     7     4     6    1
     8     4    36    1
     9     4    37    1
    10     5     7    1
    11     5    38    1
    12     5    39    1
    13     6     8    1
    14     6    40    1
    15     6    41    1
    16     7     9    1
    17     7    42    1
    18     7    43    1
    19     8    10    1
    20     8    44    1
    21     8    45    1
    22     9    11    1
    23     9    46    1
    24     9    47    1
    25    10    12    1
    26    10    48    1
    27    10    49    1
    28    11    13    1
    29    11    50    1
    30    11    51    1
    31    12    15    1
    32    12    52    1
    33    12    53    1
    34    13    18    1
    35    13    54    1
    36    13    55    1
    37    14    16    1
    38    14    17    1
    39    14    56    1
    40    14    57    1
    41    15    23    1
    42    15    58    1
    43    15    59    1
    44    16    19    1
    45    16    60    1
    46    16    61    1
    47    17    20    1
    48    17    62    1
    49    17    63    1
    50    18    24    1
    51    18    64    1
    52    18    65    1
    53    19    21    1
    54    19    66    1
    55    19    67    1
    56    20    22    1
    57    20    68    1
    58    20    69    1
    59    21    25    1
    60    21    70    1
    61    21    71    1
    62    22    26    1
    63    22    72    1
    64    22    73    1
    65    23    27    1
    66    23    74    1
    67    23    75    1
    68    24    28    1
    69    24    76    1
    70    24    77    1
    71    25    30    1
    72    25    78    1
    73    25    79    1
    74    26    31    1
    75    26    80    1
    76    26    81    1
    77    27    32    1
    78    27    82    1
    79    27    83    1
    80    28    29    1
    81    29    30    1
    82    29    84    1
    83    29    85    1
    84    31    33    1
    85    31    86    1
    86    31    87    1
    87    32    88    1
    88    32    89    1
    89    32    90    1
    90    33    91    1
    91    33    92    1
    92    33    93    1
