@<TRIPOS>MOLECULE
IMPHY003951
 54 58 0 0 0
SMALL
GASTEIGER

@<TRIPOS>ATOM
      1 O           8.0628   -0.2286    0.0000 O.3     1  UNL1       -0.4875
      2 O           4.9867    1.5153    0.0000 O.3     1  UNL1       -0.4808
      3 O           6.5182   -2.8809    0.0000 O.3     1  UNL1       -0.3865
      4 O           5.0145   -2.0207    0.0000 O.2     1  UNL1       -0.4215
      5 O           3.4762   -2.8967    0.0000 O.2     1  UNL1       -0.2452
      6 C           8.0698   -2.0287    0.0000 C.3     1  UNL1        0.0233
      7 C           7.0282   -2.0207    0.0000 C.3     1  UNL1        0.0930
      8 C           8.5906   -1.1266    0.0000 C.3     1  UNL1        0.1027
      9 C           6.5214   -1.1107    0.0000 C.ar    1  UNL1        0.0665
     10 C           7.0214   -0.2447    0.0000 C.ar    1  UNL1        0.1407
     11 C           6.5214    0.6214    0.0000 C.ar    1  UNL1        0.0594
     12 C           5.5214   -1.1107    0.0000 C.ar    1  UNL1        0.1523
     13 C           5.5214    0.6214    0.0000 C.ar    1  UNL1        0.1436
     14 C           5.0214   -0.2447    0.0000 C.ar    1  UNL1        0.0681
     15 C           8.5664   -2.8967    0.0000 C.3     1  UNL1       -0.0564
     16 C           9.5906   -1.1228    0.0000 C.3     1  UNL1       -0.0275
     17 C           5.5005    2.4214    0.0000 C.3     1  UNL1        0.1235
     18 C           7.0560    1.5153    0.0000 C.2     1  UNL1       -0.0478
     19 C           3.9798   -0.2286    0.0000 C.ar    1  UNL1        0.0031
     20 C           6.5422    2.4214    0.0000 C.2     1  UNL1       -0.0408
     21 C           5.4967    3.4214    0.0000 C.3     1  UNL1       -0.0215
     22 C           4.6326    2.9180    0.0000 C.3     1  UNL1       -0.0215
     23 C           3.4521   -1.1266    0.0000 C.ar    1  UNL1        0.0314
     24 C           3.4899    0.6431    0.0000 C.ar    1  UNL1       -0.0169
     25 C           3.9729   -2.0287    0.0000 C.ar    1  UNL1        0.3378
     26 C           3.9999    1.5033    0.0000 C.ar    1  UNL1       -0.0540
     27 C           2.4900    0.6547    0.0000 C.ar    1  UNL1       -0.0540
     28 C           3.5099    2.3751    0.0000 C.ar    1  UNL1       -0.0612
     29 C           2.0000    1.5265    0.0000 C.ar    1  UNL1       -0.0612
     30 C           2.5100    2.3866    0.0000 C.ar    1  UNL1       -0.0617
     31 H           8.6898   -2.0299    0.0000 H       1  UNL1        0.0362
     32 H           7.3330   -2.5606    0.0000 H       1  UNL1        0.0650
     33 H           8.8975   -0.5879    0.0000 H       1  UNL1        0.0734
     34 H           8.0283   -3.2046    0.0000 H       1  UNL1        0.0234
     35 H           8.8744   -3.4348    0.0000 H       1  UNL1        0.0234
     36 H           9.1046   -2.5887    0.0000 H       1  UNL1        0.0234
     37 H           9.5930   -1.7428    0.0000 H       1  UNL1        0.0265
     38 H          10.2106   -1.1204    0.0000 H       1  UNL1        0.0265
     39 H           9.5882   -0.5028    0.0000 H       1  UNL1        0.0265
     40 H           7.6760    1.5081    0.0000 H       1  UNL1        0.0624
     41 H           6.8542    2.9571    0.0000 H       1  UNL1        0.0611
     42 H           6.8220   -3.4214    0.0000 H       1  UNL1        0.2102
     43 H           6.1167    3.4238    0.0000 H       1  UNL1        0.0271
     44 H           5.4943    4.0414    0.0000 H       1  UNL1        0.0271
     45 H           4.8767    3.4190    0.0000 H       1  UNL1        0.0271
     46 H           4.9405    3.4562    0.0000 H       1  UNL1        0.0271
     47 H           4.0945    3.2260    0.0000 H       1  UNL1        0.0271
     48 H           4.3247    2.3799    0.0000 H       1  UNL1        0.0271
     49 H           2.8321   -1.1242    0.0000 H       1  UNL1        0.0695
     50 H           4.6198    1.4962    0.0000 H       1  UNL1        0.0624
     51 H           2.1738    0.1214    0.0000 H       1  UNL1        0.0624
     52 H           3.8261    2.9084    0.0000 H       1  UNL1        0.0618
     53 H           1.3800    1.5336    0.0000 H       1  UNL1        0.0618
     54 H           2.2062    2.9271    0.0000 H       1  UNL1        0.0618
@<TRIPOS>BOND
     1     1     8    1
     2     1    10    1
     3     2    13    1
     4     2    17    1
     5     7     3    1
     6     3    42    1
     7     4    12   ar
     8     4    25   ar
     9     5    25    2
    10     6     7    1
    11     6     8    1
    12     6    15    1
    13     6    31    1
    14     7     9    1
    15     7    32    1
    16     8    16    1
    17     8    33    1
    18     9    10   ar
    19     9    12   ar
    20    10    11   ar
    21    11    13   ar
    22    11    18    1
    23    12    14   ar
    24    13    14   ar
    25    14    19   ar
    26    15    34    1
    27    15    35    1
    28    15    36    1
    29    16    37    1
    30    16    38    1
    31    16    39    1
    32    17    20    1
    33    17    21    1
    34    17    22    1
    35    18    20    2
    36    18    40    1
    37    19    23   ar
    38    19    24    1
    39    20    41    1
    40    21    43    1
    41    21    44    1
    42    21    45    1
    43    22    46    1
    44    22    47    1
    45    22    48    1
    46    23    25   ar
    47    23    49    1
    48    24    26   ar
    49    24    27   ar
    50    26    28   ar
    51    26    50    1
    52    27    29   ar
    53    27    51    1
    54    28    30   ar
    55    28    52    1
    56    29    30   ar
    57    29    53    1
    58    30    54    1
