@<TRIPOS>MOLECULE
IMPHY010917
 33 35 0 0 0
SMALL
GASTEIGER

@<TRIPOS>ATOM
      1 O           5.9631   -1.6692    0.0000 O.3     1  UNL1       -0.4929
      2 O           2.9757    2.2008    0.0000 O.3     1  UNL1       -0.4930
      3 N           5.0981    1.6018    0.0000 N.ar    1  UNL1       -0.3495
      4 N           7.6255    0.4776    0.0000 N.ar    1  UNL1       -0.2499
      5 C           5.5981    0.0630    0.0000 C.ar    1  UNL1        0.0527
      6 C           4.5981    0.0630    0.0000 C.ar    1  UNL1        0.0146
      7 C           4.2891    1.0140    0.0000 C.ar    1  UNL1        0.0899
      8 C           5.9071    1.0140    0.0000 C.ar    1  UNL1        0.0768
      9 C           6.2831   -0.7218    0.0000 C.ar    1  UNL1        0.1478
     10 C           3.2737    1.2463    0.0000 C.ar    1  UNL1        0.1439
     11 C           3.9131   -0.7218    0.0000 C.ar    1  UNL1       -0.0517
     12 C           6.9225    1.2463    0.0000 C.ar    1  UNL1        0.0874
     13 C           2.5707    0.4776    0.0000 C.ar    1  UNL1       -0.0179
     14 C           2.8926   -0.5131    0.0000 C.ar    1  UNL1       -0.0576
     15 C           7.3036   -0.5131    0.0000 C.ar    1  UNL1        0.0706
     16 C           7.2205    2.2008    0.0000 C.2     1  UNL1       -0.0414
     17 C           6.6236   -2.4200    0.0000 C.3     1  UNL1        0.0789
     18 C           2.0000    2.4200    0.0000 C.3     1  UNL1        0.0789
     19 C           8.1962    2.4200    0.0000 C.2     1  UNL1       -0.0966
     20 H           5.0981    2.2218    0.0000 H       1  UNL1        0.1661
     21 H           4.1115   -1.3092    0.0000 H       1  UNL1        0.0624
     22 H           1.9648    0.6088    0.0000 H       1  UNL1        0.0655
     23 H           2.4795   -0.9754    0.0000 H       1  UNL1        0.0619
     24 H           7.7167   -0.9754    0.0000 H       1  UNL1        0.0867
     25 H           6.8004    2.6568    0.0000 H       1  UNL1        0.0634
     26 H           6.1581   -2.8295    0.0000 H       1  UNL1        0.0660
     27 H           7.0331   -2.8856    0.0000 H       1  UNL1        0.0660
     28 H           7.0891   -2.0105    0.0000 H       1  UNL1        0.0660
     29 H           2.1359    3.0250    0.0000 H       1  UNL1        0.0660
     30 H           1.3951    2.5559    0.0000 H       1  UNL1        0.0660
     31 H           1.8641    1.8151    0.0000 H       1  UNL1        0.0660
     32 H           8.6164    1.9641    0.0000 H       1  UNL1        0.0535
     33 H           8.3810    3.0119    0.0000 H       1  UNL1        0.0535
@<TRIPOS>BOND
     1     1     9    1
     2     1    17    1
     3     2    10    1
     4     2    18    1
     5     3     7   ar
     6     3     8   ar
     7     3    20    1
     8     4    12   ar
     9     4    15   ar
    10     5     6   ar
    11     5     8   ar
    12     5     9   ar
    13     6     7   ar
    14     6    11   ar
    15     7    10   ar
    16     8    12   ar
    17     9    15   ar
    18    10    13   ar
    19    11    14   ar
    20    11    21    1
    21    12    16    1
    22    13    14   ar
    23    13    22    1
    24    14    23    1
    25    15    24    1
    26    16    19    2
    27    16    25    1
    28    17    26    1
    29    17    27    1
    30    17    28    1
    31    18    29    1
    32    18    30    1
    33    18    31    1
    34    19    32    1
    35    19    33    1
