@<TRIPOS>MOLECULE
IMPHY002333
 26 25 0 0 0
SMALL
GASTEIGER

@<TRIPOS>ATOM
      1 C          11.2577    8.4980    0.0000 C.2     1  UNL1        0.2649
      2 N          12.1243    8.9986    0.0000 N.am    1  UNL1       -0.2017
      3 C          10.3911    8.9986    0.0000 C.2     1  UNL1        0.0594
      4 O          11.2577    7.5009    0.0000 O.2     1  UNL1       -0.2684
      5 C          12.9910    8.4980    0.0000 C.3     1  UNL1        0.1154
      6 C           9.5245    8.4980    0.0000 C.2     1  UNL1        0.0044
      7 C          13.8576    8.9986    0.0000 C.3     1  UNL1        0.0217
      8 C           8.6578    8.9986    0.0000 C.2     1  UNL1       -0.0044
      9 C          14.7242    8.4980    0.0000 C.3     1  UNL1        0.0018
     10 C          13.8576    9.9998    0.0000 C.3     1  UNL1        0.0018
     11 C           7.7912    8.4980    0.0000 C.2     1  UNL1       -0.0258
     12 C           6.9288    8.9986    0.0000 C.3     1  UNL1        0.0307
     13 C           6.0622    8.4980    0.0000 C.3     1  UNL1        0.0304
     14 C           5.1955    8.9986    0.0000 C.2     1  UNL1       -0.0304
     15 C           4.3289    8.4980    0.0000 C.2     1  UNL1       -0.0307
     16 C           4.3289    7.5009    0.0000 C.3     1  UNL1        0.0257
     17 C           3.4623    7.0003    0.0000 C.3     1  UNL1        0.0047
     18 C           3.4623    5.9991    0.0000 C.3     1  UNL1        0.0003
     19 C           2.5957    5.4984    0.0000 C.3     1  UNL1        0.0000
     20 C           2.5957    4.4972    0.0000 C.3     1  UNL1        0.0000
     21 C           1.7290    3.9966    0.0000 C.3     1  UNL1        0.0000
     22 C           1.7290    2.9995    0.0000 C.3     1  UNL1        0.0000
     23 C           0.8624    2.4989    0.0000 C.3     1  UNL1        0.0000
     24 C           0.8624    1.4977    0.0000 C.3     1  UNL1        0.0000
     25 C           0.0000    0.9970    0.0000 C.3     1  UNL1        0.0000
     26 C           0.0000    0.0000    0.0000 C.3     1  UNL1        0.0000
@<TRIPOS>BOND
     1     1     2   am
     2     1     3    1
     3     1     4    2
     4     2     5    1
     5     3     6    2
     6     5     7    1
     7     6     8    1
     8     7     9    1
     9     7    10    1
    10     8    11    2
    11    11    12    1
    12    12    13    1
    13    13    14    1
    14    14    15    2
    15    15    16    1
    16    16    17    1
    17    17    18    1
    18    18    19    1
    19    19    20    1
    20    20    21    1
    21    21    22    1
    22    22    23    1
    23    23    24    1
    24    24    25    1
    25    25    26    1
