@<TRIPOS>MOLECULE
IMPHY017606
 24 24 0 0 0
SMALL
GASTEIGER

@<TRIPOS>ATOM
      1 O           4.5981    0.5000    0.0000 O.3     1  UNL1       -0.3840
      2 O           2.8660    2.5000    0.0000 O.2     1  UNL1       -0.2949
      3 C           2.8660    0.5000    0.0000 C.3     1  UNL1        0.0054
      4 C           3.7320    1.0000    0.0000 C.3     1  UNL1        0.1166
      5 C           2.8660   -0.5000    0.0000 C.ar    1  UNL1       -0.0445
      6 C           3.7320    2.0000    0.0000 C.2     1  UNL1        0.1588
      7 C           3.7320   -1.0000    0.0000 C.ar    1  UNL1       -0.0585
      8 C           2.0000   -1.0000    0.0000 C.ar    1  UNL1       -0.0585
      9 C           3.7320   -2.0000    0.0000 C.ar    1  UNL1       -0.0615
     10 C           2.0000   -2.0000    0.0000 C.ar    1  UNL1       -0.0615
     11 C           4.5981    2.5000    0.0000 C.3     1  UNL1       -0.0034
     12 C           2.8660   -2.5000    0.0000 C.ar    1  UNL1       -0.0617
     13 H           2.6540    1.0826    0.0000 H       1  UNL1        0.0342
     14 H           2.2554    0.3923    0.0000 H       1  UNL1        0.0342
     15 H           3.7320    0.1500    0.0000 H       1  UNL1        0.0676
     16 H           4.2690   -0.6900    0.0000 H       1  UNL1        0.0620
     17 H           1.4631   -0.6900    0.0000 H       1  UNL1        0.0620
     18 H           4.2690   -2.3100    0.0000 H       1  UNL1        0.0618
     19 H           1.4631   -2.3100    0.0000 H       1  UNL1        0.0618
     20 H           4.9081    1.9631    0.0000 H       1  UNL1        0.0307
     21 H           5.1350    2.8100    0.0000 H       1  UNL1        0.0307
     22 H           4.2881    3.0369    0.0000 H       1  UNL1        0.0307
     23 H           5.1350    0.8100    0.0000 H       1  UNL1        0.2104
     24 H           2.8660   -3.1200    0.0000 H       1  UNL1        0.0618
@<TRIPOS>BOND
     1     1     4    1
     2     1    23    1
     3     2     6    2
     4     3     4    1
     5     3     5    1
     6     3    13    1
     7     3    14    1
     8     4     6    1
     9     4    15    1
    10     5     7   ar
    11     5     8   ar
    12     6    11    1
    13     7     9   ar
    14     7    16    1
    15     8    10   ar
    16     8    17    1
    17     9    12   ar
    18     9    18    1
    19    10    12   ar
    20    10    19    1
    21    11    20    1
    22    11    21    1
    23    11    22    1
    24    12    24    1
