@<TRIPOS>MOLECULE
IMPHY006552
 19 19 0 0 0
SMALL
GASTEIGER

@<TRIPOS>ATOM
      1 O           2.5369    0.9050    0.0000 O.3     1  UNL1       -0.5059
      2 O           4.2690   -2.0950    0.0000 O.3     1  UNL1       -0.5066
      3 O           3.4030    2.4050    0.0000 O.2     1  UNL1       -0.2922
      4 C           4.2690    0.9050    0.0000 C.ar    1  UNL1        0.0587
      5 C           3.4030    0.4050    0.0000 C.ar    1  UNL1        0.1308
      6 C           5.1350    0.4050    0.0000 C.ar    1  UNL1       -0.0443
      7 C           3.4030   -0.5950    0.0000 C.ar    1  UNL1        0.0220
      8 C           4.2690   -1.0950    0.0000 C.ar    1  UNL1        0.1204
      9 C           4.2690    1.9050    0.0000 C.2     1  UNL1        0.1636
     10 C           5.1350   -0.5950    0.0000 C.ar    1  UNL1       -0.0193
     11 C           5.1350    2.4050    0.0000 C.3     1  UNL1       -0.0013
     12 H           5.6720    0.7150    0.0000 H       1  UNL1        0.0627
     13 H           2.8660   -0.9050    0.0000 H       1  UNL1        0.0691
     14 H           5.6720   -0.9050    0.0000 H       1  UNL1        0.0654
     15 H           5.4450    1.8681    0.0000 H       1  UNL1        0.0309
     16 H           5.6720    2.7150    0.0000 H       1  UNL1        0.0309
     17 H           4.8250    2.9419    0.0000 H       1  UNL1        0.0309
     18 H           2.0000    0.5950    0.0000 H       1  UNL1        0.2922
     19 H           4.8059   -2.4050    0.0000 H       1  UNL1        0.2921
@<TRIPOS>BOND
     1     1     5    1
     2     1    18    1
     3     2     8    1
     4     2    19    1
     5     3     9    2
     6     4     5   ar
     7     4     6   ar
     8     4     9    1
     9     5     7   ar
    10     6    10   ar
    11     6    12    1
    12     7     8   ar
    13     7    13    1
    14     8    10   ar
    15     9    11    1
    16    10    14    1
    17    11    15    1
    18    11    16    1
    19    11    17    1
