@<TRIPOS>MOLECULE
IMPHY002228
 82 86 0 0 0
SMALL
GASTEIGER

@<TRIPOS>ATOM
      1 O           5.3307    0.4932    0.0000 O.3     1  UNL1       -0.3915
      2 O           4.3792    0.0502    0.0000 O.3     1  UNL1       -0.3911
      3 O           2.5357   -3.0591    0.0000 O.3     1  UNL1       -0.3912
      4 O           7.9891    3.9729    0.0000 O.2     1  UNL1       -0.2960
      5 C           7.0628   -1.5068    0.0000 C.3     1  UNL1       -0.0206
      6 C           7.9288   -1.0068    0.0000 C.3     1  UNL1       -0.0231
      7 C           6.1968   -1.0068    0.0000 C.3     1  UNL1       -0.0011
      8 C           7.9288   -0.0068    0.0000 C.3     1  UNL1       -0.0289
      9 C           5.2868   -1.5136    0.0000 C.3     1  UNL1        0.0030
     10 C           8.8228    0.5279    0.0000 C.3     1  UNL1       -0.0253
     11 C           5.2787   -2.5552    0.0000 C.3     1  UNL1       -0.0254
     12 C           9.7288    0.0140    0.0000 C.3     1  UNL1       -0.0284
     13 C           6.1968   -0.0068    0.0000 C.3     1  UNL1        0.0594
     14 C           7.0789   -2.5483    0.0000 C.3     1  UNL1       -0.0465
     15 C           8.8228   -1.5415    0.0000 C.3     1  UNL1       -0.0463
     16 C           7.0628    0.4932    0.0000 C.3     1  UNL1       -0.0229
     17 C           6.1808   -3.0761    0.0000 C.3     1  UNL1       -0.0485
     18 C           9.7288   -1.0276    0.0000 C.3     1  UNL1       -0.0468
     19 C           9.0329    1.5418    0.0000 C.3     1  UNL1       -0.0098
     20 C           4.3433   -3.1050    0.0000 C.3     1  UNL1       -0.0054
     21 C           4.3599   -0.9496    0.0000 C.3     1  UNL1        0.0636
     22 C           7.7056   -2.2728    0.0000 C.3     1  UNL1       -0.0587
     23 C           8.2709   -1.9465    0.0000 C.3     1  UNL1       -0.0588
     24 C          10.4911    0.7148    0.0000 C.3     1  UNL1       -0.0468
     25 C          10.0619    1.6571    0.0000 C.3     1  UNL1       -0.0453
     26 C           5.2945   -0.5137    0.0000 C.3     1  UNL1       -0.0566
     27 C           3.4037   -2.5625    0.0000 C.3     1  UNL1        0.0630
     28 C           3.4120   -1.4775    0.0000 C.3     1  UNL1        0.0003
     29 C          10.5987   -0.4793    0.0000 C.3     1  UNL1       -0.0593
     30 C           3.8467   -3.9729    0.0000 C.3     1  UNL1       -0.0572
     31 C           4.8466   -3.9691    0.0000 C.3     1  UNL1       -0.0572
     32 C           8.3593    2.2809    0.0000 C.2     1  UNL1       -0.0119
     33 C           8.6626    3.2338    0.0000 C.2     1  UNL1        0.1460
     34 C           7.3824    2.0672    0.0000 C.2     1  UNL1       -0.0922
     35 H           6.9329   -0.5818    0.0000 H       1  UNL1        0.0337
     36 H           7.9223    0.8432    0.0000 H       1  UNL1        0.0310
     37 H           8.1300    1.0204    0.0000 H       1  UNL1        0.0315
     38 H           5.2820   -3.4052    0.0000 H       1  UNL1        0.0313
     39 H           6.1968    0.6132    0.0000 H       1  UNL1        0.0596
     40 H           7.2969   -3.1287    0.0000 H       1  UNL1        0.0271
     41 H           7.6880   -2.4328    0.0000 H       1  UNL1        0.0271
     42 H           8.4182   -2.0113    0.0000 H       1  UNL1        0.0271
     43 H           9.2164   -2.0205    0.0000 H       1  UNL1        0.0271
     44 H           7.4613    0.9681    0.0000 H       1  UNL1        0.0293
     45 H           6.6643    0.9681    0.0000 H       1  UNL1        0.0293
     46 H           5.7835   -3.5520    0.0000 H       1  UNL1        0.0268
     47 H           6.5818   -3.5490    0.0000 H       1  UNL1        0.0268
     48 H           9.9379   -1.6113    0.0000 H       1  UNL1        0.0271
     49 H          10.3397   -0.9215    0.0000 H       1  UNL1        0.0271
     50 H           9.2513    2.1220    0.0000 H       1  UNL1        0.0353
     51 H           3.8284   -0.6303    0.0000 H       1  UNL1        0.0600
     52 H           7.2306   -2.6714    0.0000 H       1  UNL1        0.0235
     53 H           8.1041   -2.7478    0.0000 H       1  UNL1        0.0235
     54 H           8.1805   -1.8743    0.0000 H       1  UNL1        0.0235
     55 H           7.6884   -2.1586    0.0000 H       1  UNL1        0.0235
     56 H           8.4830   -2.5291    0.0000 H       1  UNL1        0.0235
     57 H           8.8535   -1.7344    0.0000 H       1  UNL1        0.0235
     58 H          10.8604    0.2167    0.0000 H       1  UNL1        0.0271
     59 H          11.0252    1.0297    0.0000 H       1  UNL1        0.0271
     60 H          10.6500    1.8534    0.0000 H       1  UNL1        0.0271
     61 H           9.9285    2.2625    0.0000 H       1  UNL1        0.0271
     62 H           5.9145   -0.5185    0.0000 H       1  UNL1        0.0236
     63 H           5.2993    0.1063    0.0000 H       1  UNL1        0.0236
     64 H           4.6745   -0.5089    0.0000 H       1  UNL1        0.0236
     65 H           2.8686   -2.2494    0.0000 H       1  UNL1        0.0599
     66 H           3.2075   -0.8922    0.0000 H       1  UNL1        0.0315
     67 H           2.8004   -1.5789    0.0000 H       1  UNL1        0.0315
     68 H          10.2928   -1.0186    0.0000 H       1  UNL1        0.0235
     69 H          11.1380   -0.7852    0.0000 H       1  UNL1        0.0235
     70 H          10.9045    0.0600    0.0000 H       1  UNL1        0.0235
     71 H           3.3085   -3.6650    0.0000 H       1  UNL1        0.0236
     72 H           3.5387   -4.5110    0.0000 H       1  UNL1        0.0236
     73 H           4.3109   -4.2811    0.0000 H       1  UNL1        0.0236
     74 H           5.1587   -4.5048    0.0000 H       1  UNL1        0.0236
     75 H           5.3824   -3.6570    0.0000 H       1  UNL1        0.0236
     76 H           4.3848   -4.2808    0.0000 H       1  UNL1        0.0236
     77 H           5.3307    1.1132    0.0000 H       1  UNL1        0.2098
     78 H           3.8483    0.3705    0.0000 H       1  UNL1        0.2098
     79 H           2.0000   -2.7471    0.0000 H       1  UNL1        0.2098
     80 H           9.2683    3.3663    0.0000 H       1  UNL1        0.1078
     81 H           6.9648    2.5254    0.0000 H       1  UNL1        0.0539
     82 H           7.1944    1.4764    0.0000 H       1  UNL1        0.0539
@<TRIPOS>BOND
     1    13     1    1
     2     1    77    1
     3    21     2    1
     4     2    78    1
     5    27     3    1
     6     3    79    1
     7     4    33    2
     8     5     6    1
     9     5     7    1
    10     5    14    1
    11     5    22    1
    12     6     8    1
    13     6    15    1
    14     6    23    1
    15     7     9    1
    16     7    13    1
    17     7    35    1
    18     8    10    1
    19     8    16    1
    20     8    36    1
    21     9    11    1
    22     9    21    1
    23     9    26    1
    24    10    12    1
    25    10    19    1
    26    10    37    1
    27    11    17    1
    28    11    20    1
    29    11    38    1
    30    12    18    1
    31    12    24    1
    32    12    29    1
    33    13    16    1
    34    13    39    1
    35    14    17    1
    36    14    40    1
    37    14    41    1
    38    15    18    1
    39    15    42    1
    40    15    43    1
    41    16    44    1
    42    16    45    1
    43    17    46    1
    44    17    47    1
    45    18    48    1
    46    18    49    1
    47    19    25    1
    48    19    32    1
    49    19    50    1
    50    20    27    1
    51    20    30    1
    52    20    31    1
    53    21    28    1
    54    21    51    1
    55    22    52    1
    56    22    53    1
    57    22    54    1
    58    23    55    1
    59    23    56    1
    60    23    57    1
    61    24    25    1
    62    24    58    1
    63    24    59    1
    64    25    60    1
    65    25    61    1
    66    26    62    1
    67    26    63    1
    68    26    64    1
    69    27    28    1
    70    27    65    1
    71    28    66    1
    72    28    67    1
    73    29    68    1
    74    29    69    1
    75    29    70    1
    76    30    71    1
    77    30    72    1
    78    30    76    1
    79    31    73    1
    80    31    74    1
    81    31    75    1
    82    32    33    1
    83    32    34    2
    84    33    80    1
    85    34    81    1
    86    34    82    1
