@<TRIPOS>MOLECULE
IMPHY006944
 23 23 0 0 0
SMALL
GASTEIGER

@<TRIPOS>ATOM
      1 O           2.8660   -2.5000    0.0000 O.3     1  UNL1       -0.4951
      2 C           2.8660    0.5000    0.0000 C.ar    1  UNL1       -0.0434
      3 C           2.8660    1.5000    0.0000 C.3     1  UNL1       -0.0097
      4 C           3.7320   -0.0000    0.0000 C.ar    1  UNL1       -0.0548
      5 C           2.0000    0.0000    0.0000 C.ar    1  UNL1       -0.0548
      6 C           2.8660   -1.5000    0.0000 C.ar    1  UNL1        0.1201
      7 C           3.7320   -1.0000    0.0000 C.ar    1  UNL1       -0.0197
      8 C           2.0000   -1.0000    0.0000 C.ar    1  UNL1       -0.0197
      9 C           3.7320    2.0000    0.0000 C.2     1  UNL1       -0.0868
     10 C           2.0000   -3.0000    0.0000 C.3     1  UNL1        0.0788
     11 C           3.7320    3.0000    0.0000 C.2     1  UNL1       -0.1023
     12 H           2.6540    2.0826    0.0000 H       1  UNL1        0.0355
     13 H           2.2554    1.3923    0.0000 H       1  UNL1        0.0355
     14 H           4.2690    0.3100    0.0000 H       1  UNL1        0.0622
     15 H           1.4631    0.3100    0.0000 H       1  UNL1        0.0622
     16 H           4.2690   -1.3100    0.0000 H       1  UNL1        0.0654
     17 H           1.4631   -1.3100    0.0000 H       1  UNL1        0.0654
     18 H           4.2690    1.6900    0.0000 H       1  UNL1        0.0570
     19 H           1.6900   -2.4631    0.0000 H       1  UNL1        0.0660
     20 H           1.4631   -3.3100    0.0000 H       1  UNL1        0.0660
     21 H           2.3100   -3.5369    0.0000 H       1  UNL1        0.0660
     22 H           4.2690    3.3100    0.0000 H       1  UNL1        0.0532
     23 H           3.1951    3.3100    0.0000 H       1  UNL1        0.0532
@<TRIPOS>BOND
     1     1     6    1
     2     1    10    1
     3     2     3    1
     4     2     4   ar
     5     2     5   ar
     6     3     9    1
     7     3    12    1
     8     3    13    1
     9     4     7   ar
    10     4    14    1
    11     5     8   ar
    12     5    15    1
    13     6     7   ar
    14     6     8   ar
    15     7    16    1
    16     8    17    1
    17     9    11    2
    18     9    18    1
    19    10    19    1
    20    10    20    1
    21    10    21    1
    22    11    22    1
    23    11    23    1
