@<TRIPOS>MOLECULE
IMPHY007173
 46 45 0 0 0
SMALL
GASTEIGER

@<TRIPOS>ATOM
      1 N           6.8671   -0.2500    0.0000 N.3     1  UNL1       -0.3160
      2 N          11.1972    0.2500    0.0000 N.3     1  UNL1       -0.3160
      3 N           2.5369    0.2500    0.0000 N.3     1  UNL1       -0.3300
      4 N          15.5273   -0.2500    0.0000 N.3     1  UNL1       -0.3300
      5 C           8.5991   -0.2500    0.0000 C.3     1  UNL1       -0.0393
      6 C           9.4651    0.2500    0.0000 C.3     1  UNL1       -0.0393
      7 C          10.3312   -0.2500    0.0000 C.3     1  UNL1       -0.0041
      8 C           7.7331    0.2500    0.0000 C.3     1  UNL1       -0.0041
      9 C          12.0632   -0.2500    0.0000 C.3     1  UNL1       -0.0041
     10 C           6.0010    0.2500    0.0000 C.3     1  UNL1       -0.0041
     11 C          12.9292    0.2500    0.0000 C.3     1  UNL1       -0.0393
     12 C           5.1350   -0.2500    0.0000 C.3     1  UNL1       -0.0393
     13 C           4.2690    0.2500    0.0000 C.3     1  UNL1       -0.0395
     14 C          13.7953   -0.2500    0.0000 C.3     1  UNL1       -0.0395
     15 C          14.6613    0.2500    0.0000 C.3     1  UNL1       -0.0069
     16 C           3.4030   -0.2500    0.0000 C.3     1  UNL1       -0.0069
     17 H           8.2006   -0.7249    0.0000 H       1  UNL1        0.0278
     18 H           8.9976   -0.7249    0.0000 H       1  UNL1        0.0278
     19 H           9.8637    0.7249    0.0000 H       1  UNL1        0.0278
     20 H           9.0666    0.7249    0.0000 H       1  UNL1        0.0278
     21 H           9.9326   -0.7249    0.0000 H       1  UNL1        0.0424
     22 H          10.7297   -0.7249    0.0000 H       1  UNL1        0.0424
     23 H           8.1316    0.7249    0.0000 H       1  UNL1        0.0424
     24 H           7.3346    0.7249    0.0000 H       1  UNL1        0.0424
     25 H          11.6647   -0.7249    0.0000 H       1  UNL1        0.0424
     26 H          12.4617   -0.7249    0.0000 H       1  UNL1        0.0424
     27 H           6.3996    0.7249    0.0000 H       1  UNL1        0.0424
     28 H           5.6025    0.7249    0.0000 H       1  UNL1        0.0424
     29 H          13.3278    0.7249    0.0000 H       1  UNL1        0.0278
     30 H          12.5307    0.7249    0.0000 H       1  UNL1        0.0278
     31 H           4.7365   -0.7249    0.0000 H       1  UNL1        0.0278
     32 H           5.5335   -0.7249    0.0000 H       1  UNL1        0.0278
     33 H          11.1972    0.8700    0.0000 H       1  UNL1        0.1219
     34 H           6.8671   -0.8700    0.0000 H       1  UNL1        0.1219
     35 H           4.6675    0.7249    0.0000 H       1  UNL1        0.0278
     36 H           3.8705    0.7249    0.0000 H       1  UNL1        0.0278
     37 H          13.3967   -0.7249    0.0000 H       1  UNL1        0.0278
     38 H          14.1938   -0.7249    0.0000 H       1  UNL1        0.0278
     39 H          15.0598    0.7249    0.0000 H       1  UNL1        0.0422
     40 H          14.2628    0.7249    0.0000 H       1  UNL1        0.0422
     41 H           3.0044   -0.7249    0.0000 H       1  UNL1        0.0422
     42 H           3.8015   -0.7249    0.0000 H       1  UNL1        0.0422
     43 H           2.0000   -0.0600    0.0000 H       1  UNL1        0.1182
     44 H           2.5369    0.8700    0.0000 H       1  UNL1        0.1182
     45 H          16.0643    0.0600    0.0000 H       1  UNL1        0.1182
     46 H          15.5273   -0.8700    0.0000 H       1  UNL1        0.1182
@<TRIPOS>BOND
     1     1     8    1
     2     1    10    1
     3     1    34    1
     4     2     7    1
     5     2     9    1
     6     2    33    1
     7     3    16    1
     8     3    43    1
     9     3    44    1
    10     4    15    1
    11     4    45    1
    12     4    46    1
    13     5     6    1
    14     5     8    1
    15     5    17    1
    16     5    18    1
    17     6     7    1
    18     6    19    1
    19     6    20    1
    20     7    21    1
    21     7    22    1
    22     8    23    1
    23     8    24    1
    24     9    11    1
    25     9    25    1
    26     9    26    1
    27    10    12    1
    28    10    27    1
    29    10    28    1
    30    11    14    1
    31    11    29    1
    32    11    30    1
    33    12    13    1
    34    12    31    1
    35    12    32    1
    36    13    16    1
    37    13    35    1
    38    13    36    1
    39    14    15    1
    40    14    37    1
    41    14    38    1
    42    15    39    1
    43    15    40    1
    44    16    41    1
    45    16    42    1
