@<TRIPOS>MOLECULE
IMPHY012076
 26 26 0 0 0
SMALL
GASTEIGER

@<TRIPOS>ATOM
      1 C           2.8660    0.7500    0.0000 C.3     1  UNL1       -0.0168
      2 C           2.8660    1.7500    0.0000 C.3     1  UNL1       -0.0402
      3 C           2.0000    0.2500    0.0000 C.3     1  UNL1       -0.0277
      4 C           3.7320    0.2500    0.0000 C.2     1  UNL1       -0.0801
      5 C           3.7320    2.2500    0.0000 C.3     1  UNL1       -0.0621
      6 C           2.0000    2.2500    0.0000 C.3     1  UNL1       -0.0621
      7 C           2.0000   -0.7500    0.0000 C.2     1  UNL1       -0.0805
      8 C           2.8660   -1.2500    0.0000 C.2     1  UNL1       -0.0546
      9 C           3.7320   -0.7500    0.0000 C.2     1  UNL1       -0.0628
     10 C           2.8660   -2.2500    0.0000 C.3     1  UNL1       -0.0400
     11 H           3.4030    1.0600    0.0000 H       1  UNL1        0.0348
     12 H           2.8660    2.3700    0.0000 H       1  UNL1        0.0301
     13 H           1.7880    0.8326    0.0000 H       1  UNL1        0.0313
     14 H           1.3894    0.1423    0.0000 H       1  UNL1        0.0313
     15 H           4.2690    0.5600    0.0000 H       1  UNL1        0.0575
     16 H           4.0420    1.7131    0.0000 H       1  UNL1        0.0233
     17 H           4.2690    2.5600    0.0000 H       1  UNL1        0.0233
     18 H           3.4220    2.7869    0.0000 H       1  UNL1        0.0233
     19 H           2.3100    2.7869    0.0000 H       1  UNL1        0.0233
     20 H           1.4631    2.5600    0.0000 H       1  UNL1        0.0233
     21 H           1.6900    1.7131    0.0000 H       1  UNL1        0.0233
     22 H           1.4631   -1.0600    0.0000 H       1  UNL1        0.0575
     23 H           4.2690   -1.0600    0.0000 H       1  UNL1        0.0617
     24 H           2.2460   -2.2500    0.0000 H       1  UNL1        0.0277
     25 H           2.8660   -2.8700    0.0000 H       1  UNL1        0.0277
     26 H           3.4860   -2.2500    0.0000 H       1  UNL1        0.0277
@<TRIPOS>BOND
     1     1     2    1
     2     1     3    1
     3     1     4    1
     4     1    11    1
     5     2     5    1
     6     2     6    1
     7     2    12    1
     8     3     7    1
     9     3    13    1
    10     3    14    1
    11     4     9    2
    12     4    15    1
    13     5    16    1
    14     5    17    1
    15     5    18    1
    16     6    19    1
    17     6    20    1
    18     6    21    1
    19     7     8    2
    20     7    22    1
    21     8     9    1
    22     8    10    1
    23     9    23    1
    24    10    24    1
    25    10    25    1
    26    10    26    1
