@<TRIPOS>MOLECULE
IMPHY005503
 48 54 0 0 0
SMALL
GASTEIGER

@<TRIPOS>ATOM
      1 O           6.8022   -2.0387    0.0000 O.3     1  UNL1       -0.3717
      2 O           3.5351   -2.0766    0.0000 O.2     1  UNL1       -0.2752
      3 O           2.8004   -1.6524    0.0000 O.3     1  UNL1       -0.5049
      4 N           5.8097    2.1000    0.0000 N.3     1  UNL1       -0.2946
      5 N           4.4011   -0.6524    0.0000 N.am    1  UNL1       -0.2636
      6 C           5.2014    0.7339    0.0000 C.3     1  UNL1        0.0336
      7 C           5.2014   -0.1903    0.0000 C.3     1  UNL1        0.0481
      8 C           6.0018    1.1960    0.0000 C.3     1  UNL1        0.0227
      9 C           6.0018   -0.6524    0.0000 C.3     1  UNL1        0.0122
     10 C           6.8022   -0.1903    0.0000 C.3     1  UNL1       -0.0103
     11 C           6.8022    0.7339    0.0000 C.3     1  UNL1       -0.0295
     12 C           4.5146    1.3523    0.0000 C.3     1  UNL1       -0.0273
     13 C           3.6007    0.7339    0.0000 C.ar    1  UNL1       -0.0129
     14 C           4.8906    2.1965    0.0000 C.3     1  UNL1        0.0004
     15 C           6.0018   -1.5766    0.0000 C.3     1  UNL1        0.0724
     16 C           7.6625   -0.5279    0.0000 C.2     1  UNL1       -0.0538
     17 C           7.6266    1.2986    0.0000 C.3     1  UNL1        0.0207
     18 C           3.6007   -0.1903    0.0000 C.ar    1  UNL1        0.0821
     19 C           5.2014   -2.0387    0.0000 C.3     1  UNL1        0.0511
     20 C           4.4011   -1.5766    0.0000 C.2     1  UNL1        0.2226
     21 C           7.9758   -1.1658    0.0000 C.2     1  UNL1       -0.0579
     22 C           2.8004    1.1960    0.0000 C.ar    1  UNL1       -0.0559
     23 C           2.8004   -0.6524    0.0000 C.ar    1  UNL1        0.1385
     24 C           7.5239   -2.0284    0.0000 C.3     1  UNL1        0.0665
     25 C           2.0000    0.7339    0.0000 C.ar    1  UNL1       -0.0579
     26 C           2.0000   -0.1903    0.0000 C.ar    1  UNL1       -0.0183
     27 H           5.2040   -1.0403    0.0000 H       1  UNL1        0.0517
     28 H           6.7442    1.6098    0.0000 H       1  UNL1        0.0472
     29 H           6.7379   -1.0774    0.0000 H       1  UNL1        0.0350
     30 H           7.5045    0.2885    0.0000 H       1  UNL1        0.0351
     31 H           7.4128    0.6262    0.0000 H       1  UNL1        0.0286
     32 H           7.0142    1.3165    0.0000 H       1  UNL1        0.0286
     33 H           3.9777    1.6623    0.0000 H       1  UNL1        0.0287
     34 H           4.1502    0.8507    0.0000 H       1  UNL1        0.0287
     35 H           5.0194    2.8030    0.0000 H       1  UNL1        0.0427
     36 H           4.3009    2.3881    0.0000 H       1  UNL1        0.0427
     37 H           5.9945   -2.4265    0.0000 H       1  UNL1        0.0604
     38 H           8.2418    1.2211    0.0000 H       1  UNL1        0.0473
     39 H           7.7922    1.8961    0.0000 H       1  UNL1        0.0473
     40 H           4.8029   -2.5136    0.0000 H       1  UNL1        0.0384
     41 H           5.6000   -2.5136    0.0000 H       1  UNL1        0.0384
     42 H           8.5957   -1.1739    0.0000 H       1  UNL1        0.0595
     43 H           2.8004    1.8160    0.0000 H       1  UNL1        0.0621
     44 H           7.4305   -2.6413    0.0000 H       1  UNL1        0.0604
     45 H           8.1131   -2.2216    0.0000 H       1  UNL1        0.0604
     46 H           1.4631    1.0439    0.0000 H       1  UNL1        0.0619
     47 H           1.4631   -0.5003    0.0000 H       1  UNL1        0.0655
     48 H           2.2634   -1.9624    0.0000 H       1  UNL1        0.2922
@<TRIPOS>BOND
     1     1    15    1
     2     1    24    1
     3     2    20    2
     4     3    23    1
     5     3    48    1
     6     4     8    1
     7     4    14    1
     8     4    17    1
     9     5     7    1
    10     5    18    1
    11     5    20   am
    12     6     7    1
    13     6     8    1
    14     6    12    1
    15     6    13    1
    16     7     9    1
    17     7    27    1
    18     8    11    1
    19     8    28    1
    20     9    10    1
    21     9    15    1
    22     9    29    1
    23    10    11    1
    24    10    16    1
    25    10    30    1
    26    11    31    1
    27    11    32    1
    28    12    14    1
    29    12    33    1
    30    12    34    1
    31    13    18   ar
    32    13    22   ar
    33    14    35    1
    34    14    36    1
    35    15    19    1
    36    15    37    1
    37    16    17    1
    38    16    21    2
    39    17    38    1
    40    17    39    1
    41    18    23   ar
    42    19    20    1
    43    19    40    1
    44    19    41    1
    45    21    24    1
    46    21    42    1
    47    22    25   ar
    48    22    43    1
    49    23    26   ar
    50    24    44    1
    51    24    45    1
    52    25    26   ar
    53    25    46    1
    54    26    47    1
