@<TRIPOS>MOLECULE
IMPHY015546
 42 44 0 0 0
SMALL
GASTEIGER

@<TRIPOS>ATOM
      1 O           5.7419    2.2952    0.0000 O.3     1  UNL1       -0.3886
      2 C           4.1484   -0.6527    0.0000 C.3     1  UNL1       -0.0317
      3 C           3.1636   -0.4790    0.0000 C.3     1  UNL1       -0.0324
      4 C           5.2242    0.3634    0.0000 C.3     1  UNL1       -0.0263
      5 C           2.9844   -1.4712    0.0000 C.3     1  UNL1       -0.0315
      6 C           3.9774   -1.6463    0.0000 C.3     1  UNL1       -0.0440
      7 C           4.7464    2.3119    0.0000 C.3     1  UNL1       -0.0183
      8 C           5.4830    1.3293    0.0000 C.3     1  UNL1        0.0666
      9 C           2.8216    0.4607    0.0000 C.3     1  UNL1       -0.0469
     10 C           6.4959   -0.4313    0.0000 C.3     1  UNL1       -0.0472
     11 C           3.4644    1.2267    0.0000 C.3     1  UNL1       -0.0237
     12 C           6.9147    1.1316    0.0000 C.3     1  UNL1       -0.0240
     13 C           7.2730    0.1981    0.0000 C.3     1  UNL1       -0.0500
     14 C           5.6469   -0.5429    0.0000 C.3     1  UNL1       -0.0592
     15 C           2.8088   -2.4557    0.0000 C.3     1  UNL1       -0.0595
     16 C           2.0000   -1.2956    0.0000 C.3     1  UNL1       -0.0595
     17 H           4.9855   -0.8003    0.0000 H       1  UNL1        0.0309
     18 H           2.3265   -0.3314    0.0000 H       1  UNL1        0.0309
     19 H           3.8706   -2.2571    0.0000 H       1  UNL1        0.0273
     20 H           4.5883   -1.7523    0.0000 H       1  UNL1        0.0273
     21 H           5.0642    2.8443    0.0000 H       1  UNL1        0.0298
     22 H           4.1333    2.4039    0.0000 H       1  UNL1        0.0298
     23 H           2.4231    0.9356    0.0000 H       1  UNL1        0.0269
     24 H           2.2847    0.1507    0.0000 H       1  UNL1        0.0269
     25 H           6.1114   -0.9176    0.0000 H       1  UNL1        0.0271
     26 H           6.9369   -0.8671    0.0000 H       1  UNL1        0.0271
     27 H           3.5869    1.8345    0.0000 H       1  UNL1        0.0293
     28 H           2.9057    1.4956    0.0000 H       1  UNL1        0.0293
     29 H           7.5225    1.2540    0.0000 H       1  UNL1        0.0293
     30 H           6.8956    1.7514    0.0000 H       1  UNL1        0.0293
     31 H           7.6107   -0.3219    0.0000 H       1  UNL1        0.0266
     32 H           7.8255    0.4795    0.0000 H       1  UNL1        0.0266
     33 H           5.0850   -0.8050    0.0000 H       1  UNL1        0.0235
     34 H           5.9090   -1.1048    0.0000 H       1  UNL1        0.0235
     35 H           6.2088   -0.2808    0.0000 H       1  UNL1        0.0235
     36 H           2.1984   -2.3468    0.0000 H       1  UNL1        0.0235
     37 H           2.6999   -3.0661    0.0000 H       1  UNL1        0.0235
     38 H           3.4191   -2.5646    0.0000 H       1  UNL1        0.0235
     39 H           2.1089   -0.6852    0.0000 H       1  UNL1        0.0235
     40 H           1.3896   -1.1867    0.0000 H       1  UNL1        0.0235
     41 H           1.8911   -1.9059    0.0000 H       1  UNL1        0.0235
     42 H           6.3407    2.4557    0.0000 H       1  UNL1        0.2102
@<TRIPOS>BOND
     1     8     1    1
     2     1    42    1
     3     2     3    1
     4     2     4    1
     5     2     6    1
     6     2    17    1
     7     3     5    1
     8     3     9    1
     9     3    18    1
    10     4     7    1
    11     4    10    1
    12     4    14    1
    13     5     6    1
    14     5    15    1
    15     5    16    1
    16     6    19    1
    17     6    20    1
    18     7     8    1
    19     7    21    1
    20     7    22    1
    21     8    11    1
    22     8    12    1
    23     9    11    1
    24     9    23    1
    25     9    24    1
    26    10    13    1
    27    10    25    1
    28    10    26    1
    29    11    27    1
    30    11    28    1
    31    12    13    1
    32    12    29    1
    33    12    30    1
    34    13    31    1
    35    13    32    1
    36    14    33    1
    37    14    34    1
    38    14    35    1
    39    15    36    1
    40    15    37    1
    41    15    38    1
    42    16    39    1
    43    16    40    1
    44    16    41    1
