@<TRIPOS>MOLECULE
IMPHY014478
 51 54 0 0 0
SMALL
GASTEIGER

@<TRIPOS>ATOM
      1 O           5.0929   -1.2404    0.0000 O.3     1  UNL1       -0.3310
      2 O           6.8530   -1.5192    0.0000 O.3     1  UNL1       -0.4606
      3 O           4.0051   -3.5882    0.0000 O.3     1  UNL1       -0.3863
      4 O           6.1807   -3.5882    0.0000 O.3     1  UNL1       -0.3829
      5 O           2.5896   -2.1883    0.0000 O.3     1  UNL1       -0.3894
      6 O           9.2073    1.1113    0.0000 O.2     1  UNL1       -0.4507
      7 O           5.7851    1.8558    0.0000 O.3     1  UNL1       -0.5058
      8 O           8.8901    3.7380    0.0000 O.3     1  UNL1       -0.5007
      9 O           6.9856    3.1273    0.0000 O.2     1  UNL1       -0.2830
     10 O          13.2279    3.3101    0.0000 O.3     1  UNL1       -0.5068
     11 C           4.2839   -1.8282    0.0000 C.3     1  UNL1        0.1167
     12 C           4.5929   -2.7792    0.0000 C.3     1  UNL1        0.1155
     13 C           5.5929   -2.7792    0.0000 C.3     1  UNL1        0.1454
     14 C           5.9019   -1.8282    0.0000 C.3     1  UNL1        0.2308
     15 C           3.3328   -1.5192    0.0000 C.3     1  UNL1        0.0812
     16 C           3.1249   -0.5410    0.0000 C.3     1  UNL1       -0.0364
     17 C           7.0609   -0.5410    0.0000 C.ar    1  UNL1        0.1310
     18 C           8.0503   -0.2153    0.0000 C.ar    1  UNL1        0.0235
     19 C           6.2895    0.1590    0.0000 C.ar    1  UNL1        0.0226
     20 C           8.2550    0.8060    0.0000 C.ar    1  UNL1        0.1465
     21 C           7.5145    1.4780    0.0000 C.ar    1  UNL1        0.1092
     22 C           6.5178    1.1752    0.0000 C.ar    1  UNL1        0.1348
     23 C           7.7262    2.4553    0.0000 C.ar    1  UNL1        0.2379
     24 C           9.4190    2.0887    0.0000 C.ar    1  UNL1        0.1806
     25 C           8.6784    2.7607    0.0000 C.ar    1  UNL1        0.2082
     26 C          10.3712    2.3940    0.0000 C.ar    1  UNL1        0.0213
     27 C          10.5829    3.3714    0.0000 C.ar    1  UNL1       -0.0475
     28 C          11.1118    1.7220    0.0000 C.ar    1  UNL1       -0.0475
     29 C          11.5351    3.6767    0.0000 C.ar    1  UNL1       -0.0195
     30 C          12.0640    2.0274    0.0000 C.ar    1  UNL1       -0.0195
     31 C          12.2757    3.0047    0.0000 C.ar    1  UNL1        0.1169
     32 H           4.1869   -1.2158    0.0000 H       1  UNL1        0.0650
     33 H           3.9805   -2.6822    0.0000 H       1  UNL1        0.0648
     34 H           5.3114   -3.3316    0.0000 H       1  UNL1        0.0683
     35 H           6.3403   -2.2666    0.0000 H       1  UNL1        0.1084
     36 H           3.4617   -2.1256    0.0000 H       1  UNL1        0.0617
     37 H           3.7313   -0.4121    0.0000 H       1  UNL1        0.0255
     38 H           2.9960    0.0654    0.0000 H       1  UNL1        0.0255
     39 H           2.5184   -0.6699    0.0000 H       1  UNL1        0.0255
     40 H           4.2573   -4.1546    0.0000 H       1  UNL1        0.2100
     41 H           6.7973   -3.5234    0.0000 H       1  UNL1        0.2102
     42 H           2.0000   -1.9967    0.0000 H       1  UNL1        0.2099
     43 H           8.5142   -0.6266    0.0000 H       1  UNL1        0.0691
     44 H           5.6983   -0.0281    0.0000 H       1  UNL1        0.0691
     45 H           5.1925    1.6733    0.0000 H       1  UNL1        0.2922
     46 H          10.1237    3.7880    0.0000 H       1  UNL1        0.0626
     47 H          10.9805    1.1161    0.0000 H       1  UNL1        0.0626
     48 H           8.4309    4.1546    0.0000 H       1  UNL1        0.2924
     49 H          11.6664    4.2827    0.0000 H       1  UNL1        0.0654
     50 H          12.5231    1.6108    0.0000 H       1  UNL1        0.0654
     51 H          13.6871    2.8934    0.0000 H       1  UNL1        0.2921
@<TRIPOS>BOND
     1     1    11    1
     2     1    14    1
     3     2    14    1
     4     2    17    1
     5     3    12    1
     6     3    40    1
     7     4    13    1
     8     4    41    1
     9     5    15    1
    10     5    42    1
    11     6    20   ar
    12     6    24   ar
    13     7    22    1
    14     7    45    1
    15     8    25    1
    16     8    48    1
    17     9    23    2
    18    10    31    1
    19    10    51    1
    20    11    12    1
    21    11    15    1
    22    11    32    1
    23    12    13    1
    24    12    33    1
    25    13    14    1
    26    13    34    1
    27    14    35    1
    28    15    16    1
    29    15    36    1
    30    16    37    1
    31    16    38    1
    32    16    39    1
    33    17    18   ar
    34    17    19   ar
    35    18    20   ar
    36    18    43    1
    37    19    22   ar
    38    19    44    1
    39    20    21   ar
    40    21    22   ar
    41    21    23   ar
    42    23    25   ar
    43    24    25   ar
    44    24    26    1
    45    26    27   ar
    46    26    28   ar
    47    27    29   ar
    48    27    46    1
    49    28    30   ar
    50    28    47    1
    51    29    31   ar
    52    29    49    1
    53    30    31   ar
    54    30    50    1
