@<TRIPOS>MOLECULE
IMPHY002510
 52 54 0 0 0
SMALL
GASTEIGER

@<TRIPOS>ATOM
      1 O           4.6587   -0.0587    0.0000 O.3     1  UNL1       -0.3636
      2 O           3.7357   -3.6465    0.0000 O.3     1  UNL1       -0.4914
      3 O           4.6056    4.3375    0.0000 O.3     1  UNL1       -0.4914
      4 O           5.4677   -4.6465    0.0000 O.3     1  UNL1       -0.4915
      5 O           2.6166    4.1284    0.0000 O.3     1  UNL1       -0.5033
      6 C           6.2768   -0.0587    0.0000 C.3     1  UNL1       -0.0081
      7 C           5.9677    0.8924    0.0000 C.3     1  UNL1       -0.0081
      8 C           5.4677   -0.6465    0.0000 C.3     1  UNL1        0.0874
      9 C           4.9677    0.8924    0.0000 C.3     1  UNL1        0.0874
     10 C           7.2278   -0.3677    0.0000 C.3     1  UNL1       -0.0594
     11 C           6.5555    1.7014    0.0000 C.3     1  UNL1       -0.0594
     12 C           5.4677   -1.6465    0.0000 C.ar    1  UNL1       -0.0149
     13 C           4.3800    1.7014    0.0000 C.ar    1  UNL1       -0.0149
     14 C           4.6017   -2.1465    0.0000 C.ar    1  UNL1       -0.0107
     15 C           4.7867    2.6149    0.0000 C.ar    1  UNL1       -0.0107
     16 C           6.3338   -2.1465    0.0000 C.ar    1  UNL1       -0.0524
     17 C           3.3854    1.5968    0.0000 C.ar    1  UNL1       -0.0524
     18 C           4.6017   -3.1465    0.0000 C.ar    1  UNL1        0.1618
     19 C           4.1989    3.4239    0.0000 C.ar    1  UNL1        0.1616
     20 C           6.3338   -3.1465    0.0000 C.ar    1  UNL1       -0.0160
     21 C           2.7976    2.4059    0.0000 C.ar    1  UNL1       -0.0162
     22 C           5.4677   -3.6465    0.0000 C.ar    1  UNL1        0.1615
     23 C           3.2044    3.3194    0.0000 C.ar    1  UNL1        0.1585
     24 C           3.7357   -4.6465    0.0000 C.3     1  UNL1        0.0790
     25 C           4.0179    5.1465    0.0000 C.3     1  UNL1        0.0790
     26 C           6.3338   -5.1465    0.0000 C.3     1  UNL1        0.0790
     27 H           6.7152    0.3797    0.0000 H       1  UNL1        0.0330
     28 H           5.6863    1.4448    0.0000 H       1  UNL1        0.0330
     29 H           4.9153   -0.9280    0.0000 H       1  UNL1        0.0649
     30 H           4.3554    0.7954    0.0000 H       1  UNL1        0.0649
     31 H           7.0362   -0.9574    0.0000 H       1  UNL1        0.0233
     32 H           7.8175   -0.5593    0.0000 H       1  UNL1        0.0233
     33 H           7.4194    0.2219    0.0000 H       1  UNL1        0.0233
     34 H           7.0571    1.3369    0.0000 H       1  UNL1        0.0233
     35 H           6.9200    2.2030    0.0000 H       1  UNL1        0.0233
     36 H           6.0539    2.0658    0.0000 H       1  UNL1        0.0233
     37 H           4.0648   -1.8365    0.0000 H       1  UNL1        0.0659
     38 H           5.4033    2.6797    0.0000 H       1  UNL1        0.0659
     39 H           6.8707   -1.8365    0.0000 H       1  UNL1        0.0622
     40 H           3.1333    1.0304    0.0000 H       1  UNL1        0.0622
     41 H           6.8707   -3.4565    0.0000 H       1  UNL1        0.0655
     42 H           2.1810    2.3410    0.0000 H       1  UNL1        0.0655
     43 H           2.0000    4.0636    0.0000 H       1  UNL1        0.2923
     44 H           3.1157   -4.6465    0.0000 H       1  UNL1        0.0660
     45 H           3.7357   -5.2665    0.0000 H       1  UNL1        0.0660
     46 H           4.3557   -4.6465    0.0000 H       1  UNL1        0.0660
     47 H           4.5194    5.5109    0.0000 H       1  UNL1        0.0660
     48 H           3.6534    5.6481    0.0000 H       1  UNL1        0.0660
     49 H           3.5163    4.7821    0.0000 H       1  UNL1        0.0660
     50 H           6.0238   -5.6834    0.0000 H       1  UNL1        0.0660
     51 H           6.8707   -5.4565    0.0000 H       1  UNL1        0.0660
     52 H           6.6438   -4.6096    0.0000 H       1  UNL1        0.0660
@<TRIPOS>BOND
     1     1     8    1
     2     1     9    1
     3     2    18    1
     4     2    24    1
     5     3    19    1
     6     3    25    1
     7     4    22    1
     8     4    26    1
     9     5    23    1
    10     5    43    1
    11     6     7    1
    12     6     8    1
    13     6    10    1
    14     6    27    1
    15     7     9    1
    16     7    11    1
    17     7    28    1
    18     8    12    1
    19     8    29    1
    20     9    13    1
    21     9    30    1
    22    10    31    1
    23    10    32    1
    24    10    33    1
    25    11    34    1
    26    11    35    1
    27    11    36    1
    28    12    14   ar
    29    12    16   ar
    30    13    15   ar
    31    13    17   ar
    32    14    18   ar
    33    14    37    1
    34    15    19   ar
    35    15    38    1
    36    16    20   ar
    37    16    39    1
    38    17    21   ar
    39    17    40    1
    40    18    22   ar
    41    19    23   ar
    42    20    22   ar
    43    20    41    1
    44    21    23   ar
    45    21    42    1
    46    24    44    1
    47    24    45    1
    48    24    46    1
    49    25    47    1
    50    25    48    1
    51    25    49    1
    52    26    50    1
    53    26    51    1
    54    26    52    1
