@<TRIPOS>MOLECULE
IMPHY008493
 22 21 0 0 0
SMALL
GASTEIGER

@<TRIPOS>ATOM
      1 N           4.2690    0.5950    0.0000 N.pl3   1  UNL1       -0.1095
      2 N           2.5369    0.5950    0.0000 N.pl3   1  UNL1       -0.2892
      3 N           3.4030   -0.9050    0.0000 N.pl3   1  UNL1       -0.2892
      4 C           6.8671    0.0950    0.0000 C.2     1  UNL1       -0.0766
      5 C           6.0010    0.5950    0.0000 C.2     1  UNL1       -0.0485
      6 C           5.1350    0.0950    0.0000 C.3     1  UNL1        0.1231
      7 C           7.7331    0.5950    0.0000 C.3     1  UNL1       -0.0439
      8 C           6.8671   -0.9050    0.0000 C.3     1  UNL1       -0.0439
      9 C           3.4030    0.0950    0.0000 C.cat   1  UNL1        0.3768
     10 H           6.0010    1.2150    0.0000 H       1  UNL1        0.0604
     11 H           4.7365   -0.3799    0.0000 H       1  UNL1        0.0738
     12 H           5.5335   -0.3799    0.0000 H       1  UNL1        0.0738
     13 H           8.0431    0.0581    0.0000 H       1  UNL1        0.0274
     14 H           8.2700    0.9050    0.0000 H       1  UNL1        0.0274
     15 H           7.4231    1.1319    0.0000 H       1  UNL1        0.0274
     16 H           6.2471   -0.9050    0.0000 H       1  UNL1        0.0274
     17 H           6.8671   -1.5250    0.0000 H       1  UNL1        0.0274
     18 H           7.4871   -0.9050    0.0000 H       1  UNL1        0.0274
     19 H           2.0000    0.2850    0.0000 H       1  UNL1        0.2546
     20 H           2.5369    1.2150    0.0000 H       1  UNL1        0.2546
     21 H           3.9399   -1.2150    0.0000 H       1  UNL1        0.2546
     22 H           2.8660   -1.2150    0.0000 H       1  UNL1        0.2546
@<TRIPOS>BOND
     1     1     6    1
     2     1     9    2
     3     2     9    1
     4     2    19    1
     5     2    20    1
     6     3     9    1
     7     3    21    1
     8     3    22    1
     9     4     5    2
    10     4     7    1
    11     4     8    1
    12     5     6    1
    13     5    10    1
    14     6    11    1
    15     6    12    1
    16     7    13    1
    17     7    14    1
    18     7    15    1
    19     8    16    1
    20     8    17    1
    21     8    18    1
