@<TRIPOS>MOLECULE
IMPHY000761
 69 73 0 0 0
SMALL
GASTEIGER

@<TRIPOS>ATOM
      1 O           6.0580    1.0268    0.0000 O.3     1  UNL1       -0.3712
      2 O           8.9765    1.9751    0.0000 O.3     1  UNL1       -0.3712
      3 O           6.8671   -3.5610    0.0000 O.3     1  UNL1       -0.4572
      4 O           5.1350   -3.5610    0.0000 O.3     1  UNL1       -0.3313
      5 O           5.1350   -2.5610    0.0000 O.3     1  UNL1       -0.4914
      6 O           6.8671   -5.5610    0.0000 O.3     1  UNL1       -0.3829
      7 O           5.1350   -6.5610    0.0000 O.3     1  UNL1       -0.3864
      8 O           3.4030   -5.5610    0.0000 O.3     1  UNL1       -0.3865
      9 O           9.9100    5.5571    0.0000 O.3     1  UNL1       -0.4914
     10 O           8.1797    6.5601    0.0000 O.3     1  UNL1       -0.5033
     11 O           2.5369   -4.0610    0.0000 O.3     1  UNL1       -0.3924
     12 C           7.6761    1.0268    0.0000 C.3     1  UNL1        0.0205
     13 C           7.3671    1.9778    0.0000 C.3     1  UNL1        0.0205
     14 C           6.8671    0.4390    0.0000 C.3     1  UNL1        0.0891
     15 C           8.1728    2.5601    0.0000 C.3     1  UNL1        0.0891
     16 C           6.3671    1.9778    0.0000 C.3     1  UNL1        0.0544
     17 C           8.6702    1.0294    0.0000 C.3     1  UNL1        0.0544
     18 C           6.8671   -0.5610    0.0000 C.ar    1  UNL1       -0.0149
     19 C           8.1745    3.5601    0.0000 C.ar    1  UNL1       -0.0149
     20 C           6.0010   -1.0610    0.0000 C.ar    1  UNL1       -0.0107
     21 C           7.7331   -1.0610    0.0000 C.ar    1  UNL1       -0.0524
     22 C           9.0414    4.0586    0.0000 C.ar    1  UNL1       -0.0107
     23 C           7.3094    4.0616    0.0000 C.ar    1  UNL1       -0.0524
     24 C           6.0010   -2.0610    0.0000 C.ar    1  UNL1        0.1620
     25 C           7.7331   -2.0610    0.0000 C.ar    1  UNL1       -0.0158
     26 C           6.0010   -5.0610    0.0000 C.3     1  UNL1        0.1454
     27 C           5.1350   -5.5610    0.0000 C.3     1  UNL1        0.1152
     28 C           6.0010   -4.0610    0.0000 C.3     1  UNL1        0.2310
     29 C           6.8671   -2.5610    0.0000 C.ar    1  UNL1        0.1654
     30 C           4.2690   -5.0610    0.0000 C.3     1  UNL1        0.1120
     31 C           4.2690   -4.0610    0.0000 C.3     1  UNL1        0.1140
     32 C           9.0432    5.0586    0.0000 C.ar    1  UNL1        0.1616
     33 C           7.3111    5.0616    0.0000 C.ar    1  UNL1       -0.0162
     34 C           8.1780    5.5601    0.0000 C.ar    1  UNL1        0.1585
     35 C           3.4030   -3.5610    0.0000 C.3     1  UNL1        0.0731
     36 C           4.2690   -2.0610    0.0000 C.3     1  UNL1        0.0790
     37 C          10.7752    5.0556    0.0000 C.3     1  UNL1        0.0790
     38 H           7.9398    0.2187    0.0000 H       1  UNL1        0.0356
     39 H           7.1054    2.7866    0.0000 H       1  UNL1        0.0356
     40 H           6.3146    0.1575    0.0000 H       1  UNL1        0.0650
     41 H           8.7256    2.8408    0.0000 H       1  UNL1        0.0650
     42 H           6.4319    2.5945    0.0000 H       1  UNL1        0.0564
     43 H           5.7606    2.1068    0.0000 H       1  UNL1        0.0564
     44 H           8.6066    0.4126    0.0000 H       1  UNL1        0.0564
     45 H           9.2768    0.9013    0.0000 H       1  UNL1        0.0564
     46 H           5.4641   -0.7510    0.0000 H       1  UNL1        0.0659
     47 H           8.2700   -0.7510    0.0000 H       1  UNL1        0.0622
     48 H           9.5778    3.7476    0.0000 H       1  UNL1        0.0659
     49 H           6.7719    3.7525    0.0000 H       1  UNL1        0.0622
     50 H           6.0010   -5.6810    0.0000 H       1  UNL1        0.0683
     51 H           4.5981   -5.8710    0.0000 H       1  UNL1        0.0648
     52 H           6.0010   -3.4410    0.0000 H       1  UNL1        0.1084
     53 H           8.2700   -2.3710    0.0000 H       1  UNL1        0.0655
     54 H           3.7320   -4.7510    0.0000 H       1  UNL1        0.0647
     55 H           4.2690   -3.4410    0.0000 H       1  UNL1        0.0647
     56 H           6.7747    5.3725    0.0000 H       1  UNL1        0.0655
     57 H           3.8015   -3.0860    0.0000 H       1  UNL1        0.0584
     58 H           3.0044   -3.0860    0.0000 H       1  UNL1        0.0584
     59 H           7.4040   -5.2510    0.0000 H       1  UNL1        0.2102
     60 H           5.6720   -6.8710    0.0000 H       1  UNL1        0.2100
     61 H           3.4030   -6.1810    0.0000 H       1  UNL1        0.2100
     62 H           7.6433    6.8710    0.0000 H       1  UNL1        0.2923
     63 H           4.5790   -1.5240    0.0000 H       1  UNL1        0.0660
     64 H           3.7320   -1.7510    0.0000 H       1  UNL1        0.0660
     65 H           3.9590   -2.5979    0.0000 H       1  UNL1        0.0660
     66 H           2.0000   -3.7510    0.0000 H       1  UNL1        0.2095
     67 H          10.4643    4.5192    0.0000 H       1  UNL1        0.0660
     68 H          11.3116    4.7446    0.0000 H       1  UNL1        0.0660
     69 H          11.0861    5.5920    0.0000 H       1  UNL1        0.0660
@<TRIPOS>BOND
     1     1    14    1
     2     1    16    1
     3     2    15    1
     4     2    17    1
     5    28     3    1
     6     3    29    1
     7     4    28    1
     8     4    31    1
     9     5    24    1
    10     5    36    1
    11    26     6    1
    12     6    59    1
    13    27     7    1
    14     7    60    1
    15    30     8    1
    16     8    61    1
    17     9    32    1
    18     9    37    1
    19    10    34    1
    20    10    62    1
    21    11    35    1
    22    11    66    1
    23    12    13    1
    24    12    14    1
    25    12    17    1
    26    12    38    1
    27    13    15    1
    28    13    16    1
    29    13    39    1
    30    14    18    1
    31    14    40    1
    32    15    19    1
    33    15    41    1
    34    16    42    1
    35    16    43    1
    36    17    44    1
    37    17    45    1
    38    18    20   ar
    39    18    21   ar
    40    19    22   ar
    41    19    23   ar
    42    20    24   ar
    43    20    46    1
    44    21    25   ar
    45    21    47    1
    46    22    32   ar
    47    22    48    1
    48    23    33   ar
    49    23    49    1
    50    24    29   ar
    51    25    29   ar
    52    25    53    1
    53    26    27    1
    54    26    28    1
    55    26    50    1
    56    27    30    1
    57    27    51    1
    58    28    52    1
    59    30    31    1
    60    30    54    1
    61    31    35    1
    62    31    55    1
    63    32    34   ar
    64    33    34   ar
    65    33    56    1
    66    35    57    1
    67    35    58    1
    68    36    63    1
    69    36    64    1
    70    36    65    1
    71    37    67    1
    72    37    68    1
    73    37    69    1
