@<TRIPOS>MOLECULE
IMPHY010994
 27 30 0 0 0
SMALL
GASTEIGER

@<TRIPOS>ATOM
      1 O           5.3871    2.8820    0.0000 O.3     1  UNL1       -0.4526
      2 O           3.9933    3.6867    0.0000 O.3     1  UNL1       -0.4526
      3 O           3.8372   -3.4818    0.0000 O.3     1  UNL1       -0.5052
      4 N           4.7520   -0.8472    0.0000 N.ar    1  UNL1       -0.2507
      5 C           3.7841    0.7149    0.0000 C.ar    1  UNL1        0.0117
      6 C           2.9180    1.2149    0.0000 C.ar    1  UNL1       -0.0121
      7 C           3.8001   -0.3266    0.0000 C.ar    1  UNL1        0.0790
      8 C           4.6501    2.2149    0.0000 C.ar    1  UNL1        0.1669
      9 C           3.7841    2.7149    0.0000 C.ar    1  UNL1        0.1668
     10 C           4.6501    1.2149    0.0000 C.ar    1  UNL1       -0.0064
     11 C           2.9021   -0.8544    0.0000 C.ar    1  UNL1        0.0045
     12 C           2.9180    2.2149    0.0000 C.ar    1  UNL1       -0.0084
     13 C           2.0080    0.7080    0.0000 C.ar    1  UNL1       -0.0532
     14 C           2.0000   -0.3336    0.0000 C.ar    1  UNL1       -0.0519
     15 C           4.9820    3.7898    0.0000 C.3     1  UNL1        0.2332
     16 C           2.8937   -1.9393    0.0000 C.ar    1  UNL1       -0.0095
     17 C           3.8334   -2.4818    0.0000 C.ar    1  UNL1        0.1355
     18 C           4.7688   -1.9321    0.0000 C.ar    1  UNL1        0.0697
     19 H           5.1870    0.9049    0.0000 H       1  UNL1        0.0662
     20 H           2.3811    2.5249    0.0000 H       1  UNL1        0.0661
     21 H           1.4747    1.0242    0.0000 H       1  UNL1        0.0624
     22 H           1.4619   -0.6415    0.0000 H       1  UNL1        0.0624
     23 H           5.5716    3.9815    0.0000 H       1  UNL1        0.1166
     24 H           4.8532    4.3962    0.0000 H       1  UNL1        0.1166
     25 H           2.3556   -2.2473    0.0000 H       1  UNL1        0.0661
     26 H           5.3093   -2.2359    0.0000 H       1  UNL1        0.0867
     27 H           4.3753   -3.7898    0.0000 H       1  UNL1        0.2922
@<TRIPOS>BOND
     1     1     8    1
     2     1    15    1
     3     2     9    1
     4     2    15    1
     5     3    17    1
     6     3    27    1
     7     4     7   ar
     8     4    18   ar
     9     5     6   ar
    10     5     7   ar
    11     5    10   ar
    12     6    12   ar
    13     6    13   ar
    14     7    11   ar
    15     8     9   ar
    16     8    10   ar
    17     9    12   ar
    18    10    19    1
    19    11    14   ar
    20    11    16   ar
    21    12    20    1
    22    13    14   ar
    23    13    21    1
    24    14    22    1
    25    15    23    1
    26    15    24    1
    27    16    17   ar
    28    16    25    1
    29    17    18   ar
    30    18    26    1
