@<TRIPOS>MOLECULE
IMPHY005030
 21 21 0 0 0
SMALL
GASTEIGER

@<TRIPOS>ATOM
      1 O           2.0000   -2.5000    0.0000 O.3     1  UNL1       -0.5067
      2 O           5.4641    2.5000    0.0000 O.3     1  UNL1       -0.4795
      3 O           3.7320    2.5000    0.0000 O.2     1  UNL1       -0.2492
      4 N           3.7320    0.5000    0.0000 N.pl3   1  UNL1       -0.3338
      5 C           3.7320   -0.5000    0.0000 C.ar    1  UNL1        0.0310
      6 C           4.5981    1.0000    0.0000 C.3     1  UNL1        0.1069
      7 C           2.8660   -1.0000    0.0000 C.ar    1  UNL1        0.0007
      8 C           4.5981   -1.0000    0.0000 C.ar    1  UNL1       -0.0406
      9 C           2.8660   -2.0000    0.0000 C.ar    1  UNL1        0.1186
     10 C           4.5981   -2.0000    0.0000 C.ar    1  UNL1       -0.0566
     11 C           3.7320   -2.5000    0.0000 C.ar    1  UNL1       -0.0201
     12 C           4.5981    2.0000    0.0000 C.2     1  UNL1        0.3220
     13 H           3.1951    0.8100    0.0000 H       1  UNL1        0.1466
     14 H           4.8101    0.4174    0.0000 H       1  UNL1        0.0577
     15 H           5.2087    1.1077    0.0000 H       1  UNL1        0.0577
     16 H           2.3291   -0.6900    0.0000 H       1  UNL1        0.0672
     17 H           5.1350   -0.6900    0.0000 H       1  UNL1        0.0636
     18 H           5.1350   -2.3100    0.0000 H       1  UNL1        0.0619
     19 H           3.7320   -3.1200    0.0000 H       1  UNL1        0.0654
     20 H           2.0000   -3.1200    0.0000 H       1  UNL1        0.2921
     21 H           5.4641    3.1200    0.0000 H       1  UNL1        0.2951
@<TRIPOS>BOND
     1     1     9    1
     2     1    20    1
     3     2    12    1
     4     2    21    1
     5     3    12    2
     6     4     5    1
     7     4     6    1
     8     4    13    1
     9     5     7   ar
    10     5     8   ar
    11     6    12    1
    12     6    14    1
    13     6    15    1
    14     7     9   ar
    15     7    16    1
    16     8    10   ar
    17     8    17    1
    18     9    11   ar
    19    10    11   ar
    20    10    18    1
    21    11    19    1
