@<TRIPOS>MOLECULE
IMPHY016004
 21 20 0 0 0
SMALL
GASTEIGER

@<TRIPOS>ATOM
      1 O           6.3301    0.1900    0.0000 O.3     1  UNL1       -0.4665
      2 O           8.0622    0.1900    0.0000 O.2     1  UNL1       -0.2546
      3 C           4.5981    0.1900    0.0000 C.3     1  UNL1       -0.0003
      4 C           3.7320    0.6900    0.0000 C.2     1  UNL1       -0.0847
      5 C           2.8660   -0.8100    0.0000 C.3     1  UNL1       -0.0376
      6 C           5.4641    0.6900    0.0000 C.3     1  UNL1        0.0956
      7 C           2.8660    0.1900    0.0000 C.2     1  UNL1       -0.0881
      8 C           2.0000   -1.3100    0.0000 C.3     1  UNL1       -0.0618
      9 C           7.1962    0.6900    0.0000 C.2     1  UNL1        0.2943
     10 H           4.1996   -0.2849    0.0000 H       1  UNL1        0.0340
     11 H           4.9966   -0.2849    0.0000 H       1  UNL1        0.0340
     12 H           3.7320    1.3100    0.0000 H       1  UNL1        0.0570
     13 H           5.8626    1.1650    0.0000 H       1  UNL1        0.0700
     14 H           5.0656    1.1650    0.0000 H       1  UNL1        0.0700
     15 H           3.0781   -1.3926    0.0000 H       1  UNL1        0.0305
     16 H           3.4766   -0.7023    0.0000 H       1  UNL1        0.0305
     17 H           2.3291    0.5000    0.0000 H       1  UNL1        0.0569
     18 H           1.6900   -0.7731    0.0000 H       1  UNL1        0.0233
     19 H           1.4631   -1.6200    0.0000 H       1  UNL1        0.0233
     20 H           2.3100   -1.8469    0.0000 H       1  UNL1        0.0233
     21 H           7.1962    1.3100    0.0000 H       1  UNL1        0.1512
@<TRIPOS>BOND
     1     1     6    1
     2     1     9    1
     3     2     9    2
     4     3     4    1
     5     3     6    1
     6     3    10    1
     7     3    11    1
     8     4     7    2
     9     4    12    1
    10     5     7    1
    11     5     8    1
    12     5    15    1
    13     5    16    1
    14     6    13    1
    15     6    14    1
    16     7    17    1
    17     8    18    1
    18     8    19    1
    19     8    20    1
    20     9    21    1
