@<TRIPOS>MOLECULE
IMPHY008670
 24 24 0 0 0
SMALL
GASTEIGER

@<TRIPOS>ATOM
      1 O           4.2690    2.5000    0.0000 O.3     1  UNL1       -0.4885
      2 O           6.0010    1.5000    0.0000 O.3     1  UNL1       -0.5032
      3 O           2.5369    1.5000    0.0000 O.3     1  UNL1       -0.5032
      4 O           3.4030   -2.0000    0.0000 O.3     1  UNL1       -0.4644
      5 O           5.1350   -2.0000    0.0000 O.2     1  UNL1       -0.2450
      6 C           4.2690   -0.5000    0.0000 C.ar    1  UNL1        0.0661
      7 C           4.2690    1.5000    0.0000 C.ar    1  UNL1        0.2031
      8 C           5.1350    1.0000    0.0000 C.ar    1  UNL1        0.1629
      9 C           3.4030    1.0000    0.0000 C.ar    1  UNL1        0.1629
     10 C           5.1350   -0.0000    0.0000 C.ar    1  UNL1       -0.0023
     11 C           3.4030    0.0000    0.0000 C.ar    1  UNL1       -0.0023
     12 C           4.2690   -1.5000    0.0000 C.2     1  UNL1        0.3392
     13 C           5.1350    3.0000    0.0000 C.3     1  UNL1        0.0791
     14 C           3.4030   -3.0000    0.0000 C.3     1  UNL1        0.0820
     15 H           5.6720   -0.3100    0.0000 H       1  UNL1        0.0663
     16 H           2.8660   -0.3100    0.0000 H       1  UNL1        0.0663
     17 H           5.4450    2.4631    0.0000 H       1  UNL1        0.0660
     18 H           5.6720    3.3100    0.0000 H       1  UNL1        0.0660
     19 H           4.8250    3.5369    0.0000 H       1  UNL1        0.0660
     20 H           6.5380    1.1900    0.0000 H       1  UNL1        0.2923
     21 H           2.0000    1.1900    0.0000 H       1  UNL1        0.2923
     22 H           2.7830   -3.0000    0.0000 H       1  UNL1        0.0661
     23 H           3.4030   -3.6200    0.0000 H       1  UNL1        0.0661
     24 H           4.0230   -3.0000    0.0000 H       1  UNL1        0.0661
@<TRIPOS>BOND
     1     1     7    1
     2     1    13    1
     3     2     8    1
     4     2    20    1
     5     3     9    1
     6     3    21    1
     7     4    12    1
     8     4    14    1
     9     5    12    2
    10     6    10   ar
    11     6    11   ar
    12     6    12    1
    13     7     8   ar
    14     7     9   ar
    15     8    10   ar
    16     9    11   ar
    17    10    15    1
    18    11    16    1
    19    13    17    1
    20    13    18    1
    21    13    19    1
    22    14    22    1
    23    14    23    1
    24    14    24    1
