@<TRIPOS>MOLECULE
IMPHY002966
 51 57 0 0 0
SMALL
GASTEIGER

@<TRIPOS>ATOM
      1 O           8.5342   -2.0387    0.0000 O.3     1  UNL1       -0.3717
      2 O           5.2671   -2.0766    0.0000 O.2     1  UNL1       -0.2752
      3 O           2.8660    1.2339    0.0000 O.3     1  UNL1       -0.4951
      4 N           7.5417    2.1000    0.0000 N.3     1  UNL1       -0.2946
      5 N           6.1331   -0.6524    0.0000 N.am    1  UNL1       -0.2667
      6 C           6.9335    0.7339    0.0000 C.3     1  UNL1        0.0336
      7 C           6.9335   -0.1903    0.0000 C.3     1  UNL1        0.0479
      8 C           7.7339    1.1960    0.0000 C.3     1  UNL1        0.0227
      9 C           7.7339   -0.6524    0.0000 C.3     1  UNL1        0.0122
     10 C           8.5342   -0.1903    0.0000 C.3     1  UNL1       -0.0103
     11 C           8.5342    0.7339    0.0000 C.3     1  UNL1       -0.0295
     12 C           6.2467    1.3523    0.0000 C.3     1  UNL1       -0.0273
     13 C           5.3328    0.7339    0.0000 C.ar    1  UNL1       -0.0130
     14 C           6.6226    2.1965    0.0000 C.3     1  UNL1        0.0004
     15 C           7.7339   -1.5766    0.0000 C.3     1  UNL1        0.0724
     16 C           9.3945   -0.5279    0.0000 C.2     1  UNL1       -0.0538
     17 C           9.3587    1.2986    0.0000 C.3     1  UNL1        0.0207
     18 C           5.3328   -0.1903    0.0000 C.ar    1  UNL1        0.0406
     19 C           6.9335   -2.0387    0.0000 C.3     1  UNL1        0.0511
     20 C           6.1331   -1.5766    0.0000 C.2     1  UNL1        0.2225
     21 C           4.5324    1.1960    0.0000 C.ar    1  UNL1       -0.0144
     22 C           9.7078   -1.1658    0.0000 C.2     1  UNL1       -0.0579
     23 C           9.2560   -2.0284    0.0000 C.3     1  UNL1        0.0665
     24 C           4.5324   -0.6524    0.0000 C.ar    1  UNL1       -0.0365
     25 C           3.7320    0.7339    0.0000 C.ar    1  UNL1        0.1205
     26 C           3.7320   -0.1903    0.0000 C.ar    1  UNL1       -0.0182
     27 C           2.0000    0.7339    0.0000 C.3     1  UNL1        0.0788
     28 H           6.9361   -1.0403    0.0000 H       1  UNL1        0.0517
     29 H           8.4763    1.6098    0.0000 H       1  UNL1        0.0472
     30 H           8.4700   -1.0774    0.0000 H       1  UNL1        0.0350
     31 H           9.2365    0.2885    0.0000 H       1  UNL1        0.0351
     32 H           9.1448    0.6262    0.0000 H       1  UNL1        0.0286
     33 H           8.7463    1.3165    0.0000 H       1  UNL1        0.0286
     34 H           5.7098    1.6623    0.0000 H       1  UNL1        0.0287
     35 H           5.8823    0.8507    0.0000 H       1  UNL1        0.0287
     36 H           6.7515    2.8030    0.0000 H       1  UNL1        0.0427
     37 H           6.0329    2.3881    0.0000 H       1  UNL1        0.0427
     38 H           7.7265   -2.4265    0.0000 H       1  UNL1        0.0604
     39 H           9.9738    1.2211    0.0000 H       1  UNL1        0.0473
     40 H           9.5243    1.8961    0.0000 H       1  UNL1        0.0473
     41 H           6.5350   -2.5136    0.0000 H       1  UNL1        0.0384
     42 H           7.3320   -2.5136    0.0000 H       1  UNL1        0.0384
     43 H           4.5324    1.8160    0.0000 H       1  UNL1        0.0658
     44 H          10.3278   -1.1739    0.0000 H       1  UNL1        0.0595
     45 H           9.1625   -2.6413    0.0000 H       1  UNL1        0.0604
     46 H           9.8451   -2.2216    0.0000 H       1  UNL1        0.0604
     47 H           4.5324   -1.2724    0.0000 H       1  UNL1        0.0637
     48 H           3.1951   -0.5003    0.0000 H       1  UNL1        0.0655
     49 H           1.6900    1.2708    0.0000 H       1  UNL1        0.0660
     50 H           1.4631    0.4239    0.0000 H       1  UNL1        0.0660
     51 H           2.3100    0.1969    0.0000 H       1  UNL1        0.0660
@<TRIPOS>BOND
     1     1    15    1
     2     1    23    1
     3     2    20    2
     4     3    25    1
     5     3    27    1
     6     4     8    1
     7     4    14    1
     8     4    17    1
     9     5     7    1
    10     5    18    1
    11     5    20   am
    12     6     7    1
    13     6     8    1
    14     6    12    1
    15     6    13    1
    16     7     9    1
    17     7    28    1
    18     8    11    1
    19     8    29    1
    20     9    10    1
    21     9    15    1
    22     9    30    1
    23    10    11    1
    24    10    16    1
    25    10    31    1
    26    11    32    1
    27    11    33    1
    28    12    14    1
    29    12    34    1
    30    12    35    1
    31    13    18   ar
    32    13    21   ar
    33    14    36    1
    34    14    37    1
    35    15    19    1
    36    15    38    1
    37    16    17    1
    38    16    22    2
    39    17    39    1
    40    17    40    1
    41    18    24   ar
    42    19    20    1
    43    19    41    1
    44    19    42    1
    45    21    25   ar
    46    21    43    1
    47    22    23    1
    48    22    44    1
    49    23    45    1
    50    23    46    1
    51    24    26   ar
    52    24    47    1
    53    25    26   ar
    54    26    48    1
    55    27    49    1
    56    27    50    1
    57    27    51    1
