@<TRIPOS>MOLECULE
IMPHY004331
 60 62 0 0 0
SMALL
GASTEIGER

@<TRIPOS>ATOM
      1 O           6.0010    1.7500    0.0000 O.3     1  UNL1       -0.3405
      2 O           6.0010   -1.2500    0.0000 O.3     1  UNL1       -0.4528
      3 O           7.7331    1.7500    0.0000 O.3     1  UNL1       -0.3483
      4 O           4.2690   -0.2500    0.0000 O.3     1  UNL1       -0.3854
      5 O           7.7331   -0.2500    0.0000 O.3     1  UNL1       -0.3830
      6 O           4.2690    2.7500    0.0000 O.3     1  UNL1       -0.3924
      7 O           4.2690   -1.2500    0.0000 O.2     1  UNL1       -0.2456
      8 O          10.3312    6.2500    0.0000 O.3     1  UNL1       -0.5033
      9 O           8.5991    7.2500    0.0000 O.3     1  UNL1       -0.5033
     10 O           2.5369   -6.2500    0.0000 O.3     1  UNL1       -0.5033
     11 O           4.2690   -7.2500    0.0000 O.3     1  UNL1       -0.5033
     12 C           6.0010   -0.2500    0.0000 C.3     1  UNL1        0.1620
     13 C           5.1350    0.2500    0.0000 C.3     1  UNL1        0.1229
     14 C           6.8671    0.2500    0.0000 C.3     1  UNL1        0.1451
     15 C           5.1350    1.2500    0.0000 C.3     1  UNL1        0.1141
     16 C           6.8671    1.2500    0.0000 C.3     1  UNL1        0.1890
     17 C           4.2690    1.7500    0.0000 C.3     1  UNL1        0.0731
     18 C           7.7331    2.7500    0.0000 C.3     1  UNL1        0.0547
     19 C           8.5991    3.2500    0.0000 C.3     1  UNL1       -0.0039
     20 C           5.1350   -1.7500    0.0000 C.2     1  UNL1        0.3324
     21 C           8.5991    4.2500    0.0000 C.ar    1  UNL1       -0.0415
     22 C           5.1350   -2.7500    0.0000 C.2     1  UNL1        0.0231
     23 C           9.4651    4.7500    0.0000 C.ar    1  UNL1       -0.0133
     24 C           7.7331    4.7500    0.0000 C.ar    1  UNL1       -0.0548
     25 C           4.2690   -3.2500    0.0000 C.2     1  UNL1       -0.0477
     26 C           9.4651    5.7500    0.0000 C.ar    1  UNL1        0.1585
     27 C           7.7331    5.7500    0.0000 C.ar    1  UNL1       -0.0163
     28 C           8.5991    6.2500    0.0000 C.ar    1  UNL1        0.1582
     29 C           4.2690   -4.2500    0.0000 C.ar    1  UNL1       -0.0211
     30 C           3.4030   -4.7500    0.0000 C.ar    1  UNL1       -0.0094
     31 C           5.1350   -4.7500    0.0000 C.ar    1  UNL1       -0.0509
     32 C           3.4030   -5.7500    0.0000 C.ar    1  UNL1        0.1588
     33 C           5.1350   -5.7500    0.0000 C.ar    1  UNL1       -0.0160
     34 C           4.2690   -6.2500    0.0000 C.ar    1  UNL1        0.1582
     35 H           6.5380   -0.5600    0.0000 H       1  UNL1        0.0789
     36 H           4.5981    0.5600    0.0000 H       1  UNL1        0.0658
     37 H           7.4040    0.5600    0.0000 H       1  UNL1        0.0682
     38 H           5.1350    1.8700    0.0000 H       1  UNL1        0.0647
     39 H           6.8671    1.8700    0.0000 H       1  UNL1        0.0938
     40 H           3.6584    1.8577    0.0000 H       1  UNL1        0.0584
     41 H           4.0569    1.1674    0.0000 H       1  UNL1        0.0584
     42 H           3.7320    0.0600    0.0000 H       1  UNL1        0.2101
     43 H           8.2700    0.0600    0.0000 H       1  UNL1        0.2102
     44 H           7.5210    3.3326    0.0000 H       1  UNL1        0.0564
     45 H           7.1225    2.6423    0.0000 H       1  UNL1        0.0564
     46 H           8.8112    2.6674    0.0000 H       1  UNL1        0.0335
     47 H           9.2097    3.3577    0.0000 H       1  UNL1        0.0335
     48 H           3.7320    3.0600    0.0000 H       1  UNL1        0.2095
     49 H           5.6720   -3.0600    0.0000 H       1  UNL1        0.0689
     50 H          10.0021    4.4400    0.0000 H       1  UNL1        0.0658
     51 H           7.1962    4.4400    0.0000 H       1  UNL1        0.0621
     52 H           3.7320   -2.9400    0.0000 H       1  UNL1        0.0626
     53 H           7.1962    6.0600    0.0000 H       1  UNL1        0.0655
     54 H           2.8660   -4.4400    0.0000 H       1  UNL1        0.0661
     55 H           5.6720   -4.4400    0.0000 H       1  UNL1        0.0625
     56 H          10.8681    5.9400    0.0000 H       1  UNL1        0.2923
     57 H           8.0622    7.5600    0.0000 H       1  UNL1        0.2923
     58 H           5.6720   -6.0600    0.0000 H       1  UNL1        0.0655
     59 H           2.0000   -5.9400    0.0000 H       1  UNL1        0.2923
     60 H           4.8059   -7.5600    0.0000 H       1  UNL1        0.2923
@<TRIPOS>BOND
     1     1    15    1
     2     1    16    1
     3    12     2    1
     4     2    20    1
     5    16     3    1
     6     3    18    1
     7    13     4    1
     8     4    42    1
     9    14     5    1
    10     5    43    1
    11     6    17    1
    12     6    48    1
    13     7    20    2
    14     8    26    1
    15     8    56    1
    16     9    28    1
    17     9    57    1
    18    10    32    1
    19    10    59    1
    20    11    34    1
    21    11    60    1
    22    12    13    1
    23    12    14    1
    24    12    35    1
    25    13    15    1
    26    13    36    1
    27    14    16    1
    28    14    37    1
    29    15    17    1
    30    15    38    1
    31    16    39    1
    32    17    40    1
    33    17    41    1
    34    18    19    1
    35    18    44    1
    36    18    45    1
    37    19    21    1
    38    19    46    1
    39    19    47    1
    40    20    22    1
    41    21    23   ar
    42    21    24   ar
    43    22    25    2
    44    22    49    1
    45    23    26   ar
    46    23    50    1
    47    24    27   ar
    48    24    51    1
    49    25    29    1
    50    25    52    1
    51    26    28   ar
    52    27    28   ar
    53    27    53    1
    54    29    30   ar
    55    29    31   ar
    56    30    32   ar
    57    30    54    1
    58    31    33   ar
    59    31    55    1
    60    32    34   ar
    61    33    34   ar
    62    33    58    1
