@<TRIPOS>MOLECULE
IMPHY005269
 25 27 0 0 0
SMALL
GASTEIGER

@<TRIPOS>ATOM
      1 S           6.3518    0.4963    0.0000 S.3     1  UNL1       -0.0454
      2 S           8.0321   -0.0608    0.0000 S.3     1  UNL1       -0.1025
      3 N           4.5274    0.8518    0.0000 N.ar    1  UNL1       -0.3488
      4 N           6.7328   -1.2631    0.0000 N.2     1  UNL1       -0.2654
      5 C           5.0274   -0.6871    0.0000 C.ar    1  UNL1        0.0132
      6 C           4.0274   -0.6871    0.0000 C.ar    1  UNL1        0.0057
      7 C           3.7183    0.2640    0.0000 C.ar    1  UNL1        0.0476
      8 C           5.3364    0.2640    0.0000 C.ar    1  UNL1        0.0859
      9 C           5.7123   -1.4718    0.0000 C.3     1  UNL1        0.0695
     10 C           3.3424   -1.4718    0.0000 C.ar    1  UNL1       -0.0522
     11 C           2.7029    0.4963    0.0000 C.ar    1  UNL1       -0.0378
     12 C           2.3219   -1.2631    0.0000 C.ar    1  UNL1       -0.0611
     13 C           2.0000   -0.2724    0.0000 C.ar    1  UNL1       -0.0598
     14 C           7.0547   -0.2724    0.0000 C.2     1  UNL1        0.1313
     15 C           8.7040   -0.8013    0.0000 C.3     1  UNL1       -0.0116
     16 H           5.1824   -1.7936    0.0000 H       1  UNL1        0.0559
     17 H           5.9387   -2.0490    0.0000 H       1  UNL1        0.0559
     18 H           4.5274    1.4718    0.0000 H       1  UNL1        0.1664
     19 H           3.5408   -2.0592    0.0000 H       1  UNL1        0.0624
     20 H           2.5182    1.0881    0.0000 H       1  UNL1        0.0638
     21 H           1.9088   -1.7254    0.0000 H       1  UNL1        0.0618
     22 H           1.3940   -0.1412    0.0000 H       1  UNL1        0.0618
     23 H           8.2449   -1.2180    0.0000 H       1  UNL1        0.0344
     24 H           9.1207   -1.2605    0.0000 H       1  UNL1        0.0344
     25 H           9.1632   -0.3847    0.0000 H       1  UNL1        0.0344
@<TRIPOS>BOND
     1     1     8    1
     2     1    14    1
     3     2    14    1
     4     2    15    1
     5     3     7   ar
     6     3     8   ar
     7     3    18    1
     8     4     9    1
     9     4    14    2
    10     5     6   ar
    11     5     8   ar
    12     5     9    1
    13     6     7   ar
    14     6    10   ar
    15     7    11   ar
    16     9    16    1
    17     9    17    1
    18    10    12   ar
    19    10    19    1
    20    11    13   ar
    21    11    20    1
    22    12    13   ar
    23    12    21    1
    24    13    22    1
    25    15    23    1
    26    15    24    1
    27    15    25    1
