@<TRIPOS>MOLECULE
IMPHY013653
 43 46 0 0 0
SMALL
GASTEIGER

@<TRIPOS>ATOM
      1 O           3.8000    0.2350    0.0000 O.3     1  UNL1       -0.3856
      2 N           6.2236    1.4507    0.0000 N.3     1  UNL1       -0.2963
      3 N           4.6660   -3.2650    0.0000 N.ar    1  UNL1       -0.2550
      4 C           7.0897    1.9507    0.0000 C.3     1  UNL1       -0.0346
      5 C           8.4789    1.3986    0.0000 C.3     1  UNL1       -0.0282
      6 C           5.5321    0.2350    0.0000 C.3     1  UNL1        0.0408
      7 C           6.4980   -0.0238    0.0000 C.3     1  UNL1       -0.0315
      8 C           6.4603    3.2997    0.0000 C.3     1  UNL1       -0.0370
      9 C           8.0563    0.4923    0.0000 C.3     1  UNL1        0.0021
     10 C           5.5942    2.7997    0.0000 C.3     1  UNL1       -0.0005
     11 C           4.6660   -0.2650    0.0000 C.3     1  UNL1        0.0963
     12 C           9.4186    1.7407    0.0000 C.3     1  UNL1       -0.0610
     13 C           4.6660   -1.2650    0.0000 C.ar    1  UNL1       -0.0071
     14 C           3.8000   -1.7650    0.0000 C.ar    1  UNL1        0.0061
     15 C           5.5321   -1.7650    0.0000 C.ar    1  UNL1       -0.0373
     16 C           3.8000   -2.7650    0.0000 C.ar    1  UNL1        0.0713
     17 C           2.9061   -1.2303    0.0000 C.ar    1  UNL1       -0.0522
     18 C           5.5321   -2.7650    0.0000 C.ar    1  UNL1        0.0286
     19 C           2.9061   -3.2997    0.0000 C.ar    1  UNL1       -0.0357
     20 C           2.0000   -1.7442    0.0000 C.ar    1  UNL1       -0.0611
     21 C           2.0000   -2.7858    0.0000 C.ar    1  UNL1       -0.0597
     22 H           7.8258    2.3757    0.0000 H       1  UNL1        0.0305
     23 H           8.4880    2.0186    0.0000 H       1  UNL1        0.0313
     24 H           6.1041    0.4741    0.0000 H       1  UNL1        0.0491
     25 H           6.3317   -0.6211    0.0000 H       1  UNL1        0.0284
     26 H           7.0936   -0.1960    0.0000 H       1  UNL1        0.0284
     27 H           7.0143    3.5780    0.0000 H       1  UNL1        0.0280
     28 H           6.1660    3.8454    0.0000 H       1  UNL1        0.0280
     29 H           7.7774   -0.0614    0.0000 H       1  UNL1        0.0429
     30 H           8.6142    0.2218    0.0000 H       1  UNL1        0.0429
     31 H           5.2999    3.3454    0.0000 H       1  UNL1        0.0427
     32 H           5.0402    2.5213    0.0000 H       1  UNL1        0.0427
     33 H           4.6660    0.3550    0.0000 H       1  UNL1        0.0659
     34 H           9.6307    1.1581    0.0000 H       1  UNL1        0.0233
     35 H          10.0012    1.9527    0.0000 H       1  UNL1        0.0233
     36 H           9.2066    2.3233    0.0000 H       1  UNL1        0.0233
     37 H           3.8000    0.8550    0.0000 H       1  UNL1        0.2103
     38 H           6.0690   -1.4550    0.0000 H       1  UNL1        0.0636
     39 H           2.9132   -0.6104    0.0000 H       1  UNL1        0.0624
     40 H           6.0690   -3.0750    0.0000 H       1  UNL1        0.0830
     41 H           2.9132   -3.9196    0.0000 H       1  UNL1        0.0639
     42 H           1.4643   -1.4321    0.0000 H       1  UNL1        0.0618
     43 H           1.4643   -3.0979    0.0000 H       1  UNL1        0.0618
@<TRIPOS>BOND
     1    11     1    1
     2     1    37    1
     3     2     6    1
     4     2     9    1
     5     2    10    1
     6     3    16   ar
     7     3    18   ar
     8     4     5    1
     9     4     7    1
    10     4     8    1
    11     4    22    1
    12     5     9    1
    13     5    12    1
    14     5    23    1
    15     6     7    1
    16     6    11    1
    17     6    24    1
    18     7    25    1
    19     7    26    1
    20     8    10    1
    21     8    27    1
    22     8    28    1
    23     9    29    1
    24     9    30    1
    25    10    31    1
    26    10    32    1
    27    11    13    1
    28    11    33    1
    29    12    34    1
    30    12    35    1
    31    12    36    1
    32    13    14   ar
    33    13    15   ar
    34    14    16   ar
    35    14    17   ar
    36    15    18   ar
    37    15    38    1
    38    16    19   ar
    39    17    20   ar
    40    17    39    1
    41    18    40    1
    42    19    21   ar
    43    19    41    1
    44    20    21   ar
    45    20    42    1
    46    21    43    1
