@<TRIPOS>MOLECULE
IMPHY008780
 146 145 0 0 0
SMALL
GASTEIGER

@<TRIPOS>ATOM
      1 O           2.5369    0.4400    0.0000 O.3     1  UNL1       -0.3910
      2 C          23.3215    0.4400    0.0000 C.3     1  UNL1       -0.0286
      3 C          19.8574    0.4400    0.0000 C.3     1  UNL1       -0.0286
      4 C          26.7856    0.4400    0.0000 C.3     1  UNL1       -0.0286
      5 C          16.3933    0.4400    0.0000 C.3     1  UNL1       -0.0286
      6 C          20.7235   -0.0600    0.0000 C.3     1  UNL1       -0.0308
      7 C          24.1876   -0.0600    0.0000 C.3     1  UNL1       -0.0308
      8 C          17.2594   -0.0600    0.0000 C.3     1  UNL1       -0.0308
      9 C          27.6517   -0.0600    0.0000 C.3     1  UNL1       -0.0308
     10 C          30.2497    0.4400    0.0000 C.3     1  UNL1       -0.0286
     11 C          22.4555   -0.0600    0.0000 C.2     1  UNL1       -0.0762
     12 C          18.9914   -0.0600    0.0000 C.2     1  UNL1       -0.0762
     13 C          25.9196   -0.0600    0.0000 C.2     1  UNL1       -0.0762
     14 C          12.9292    0.4400    0.0000 C.3     1  UNL1       -0.0286
     15 C          13.7953   -0.0600    0.0000 C.3     1  UNL1       -0.0308
     16 C          15.5273   -0.0600    0.0000 C.2     1  UNL1       -0.0762
     17 C          31.1158   -0.0600    0.0000 C.3     1  UNL1       -0.0308
     18 C          29.3837   -0.0600    0.0000 C.2     1  UNL1       -0.0762
     19 C          21.5895    0.4400    0.0000 C.2     1  UNL1       -0.0847
     20 C          25.0536    0.4400    0.0000 C.2     1  UNL1       -0.0847
     21 C          18.1254    0.4400    0.0000 C.2     1  UNL1       -0.0847
     22 C          12.0632   -0.0600    0.0000 C.2     1  UNL1       -0.0762
     23 C          28.5177    0.4400    0.0000 C.2     1  UNL1       -0.0847
     24 C          14.6613    0.4400    0.0000 C.2     1  UNL1       -0.0847
     25 C          33.7139    0.4400    0.0000 C.3     1  UNL1       -0.0286
     26 C          10.3312   -0.0600    0.0000 C.3     1  UNL1       -0.0308
     27 C          32.8478   -0.0600    0.0000 C.2     1  UNL1       -0.0762
     28 C           9.4651    0.4400    0.0000 C.3     1  UNL1       -0.0286
     29 C          31.9818    0.4400    0.0000 C.2     1  UNL1       -0.0847
     30 C          34.5799   -0.0600    0.0000 C.3     1  UNL1       -0.0308
     31 C          11.1972    0.4400    0.0000 C.2     1  UNL1       -0.0847
     32 C           8.5991   -0.0600    0.0000 C.2     1  UNL1       -0.0762
     33 C          22.4555   -1.0600    0.0000 C.3     1  UNL1       -0.0438
     34 C          18.9914   -1.0600    0.0000 C.3     1  UNL1       -0.0438
     35 C          25.9196   -1.0600    0.0000 C.3     1  UNL1       -0.0438
     36 C          15.5273   -1.0600    0.0000 C.3     1  UNL1       -0.0438
     37 C          29.3837   -1.0600    0.0000 C.3     1  UNL1       -0.0438
     38 C          35.4459    0.4400    0.0000 C.2     1  UNL1       -0.0847
     39 C          36.3119   -0.0600    0.0000 C.2     1  UNL1       -0.0762
     40 C          12.0632   -1.0600    0.0000 C.3     1  UNL1       -0.0438
     41 C          37.1780    0.4400    0.0000 C.3     1  UNL1       -0.0286
     42 C           6.8671   -0.0600    0.0000 C.3     1  UNL1       -0.0308
     43 C           7.7331    0.4400    0.0000 C.2     1  UNL1       -0.0847
     44 C          32.8478   -1.0600    0.0000 C.3     1  UNL1       -0.0438
     45 C           6.0010    0.4400    0.0000 C.3     1  UNL1       -0.0285
     46 C          38.0440   -0.0600    0.0000 C.3     1  UNL1       -0.0308
     47 C           8.5991   -1.0600    0.0000 C.3     1  UNL1       -0.0438
     48 C          36.3119   -1.0600    0.0000 C.3     1  UNL1       -0.0438
     49 C           5.1350   -0.0600    0.0000 C.2     1  UNL1       -0.0741
     50 C          38.9100    0.4400    0.0000 C.2     1  UNL1       -0.0850
     51 C           5.1350   -1.0600    0.0000 C.3     1  UNL1       -0.0437
     52 C          39.7760   -0.0600    0.0000 C.2     1  UNL1       -0.0796
     53 C           4.2690    0.4400    0.0000 C.2     1  UNL1       -0.0600
     54 C           3.4030   -0.0600    0.0000 C.3     1  UNL1        0.0626
     55 C          40.6421    0.4400    0.0000 C.3     1  UNL1       -0.0440
     56 C          39.7760   -1.0600    0.0000 C.3     1  UNL1       -0.0440
     57 H          23.7201    0.9149    0.0000 H       1  UNL1        0.0313
     58 H          22.9230    0.9149    0.0000 H       1  UNL1        0.0313
     59 H          20.2560    0.9149    0.0000 H       1  UNL1        0.0313
     60 H          19.4589    0.9149    0.0000 H       1  UNL1        0.0313
     61 H          27.1842    0.9149    0.0000 H       1  UNL1        0.0313
     62 H          26.3871    0.9149    0.0000 H       1  UNL1        0.0313
     63 H          16.7919    0.9149    0.0000 H       1  UNL1        0.0313
     64 H          15.9948    0.9149    0.0000 H       1  UNL1        0.0313
     65 H          20.3249   -0.5349    0.0000 H       1  UNL1        0.0310
     66 H          21.1220   -0.5349    0.0000 H       1  UNL1        0.0310
     67 H          23.7890   -0.5349    0.0000 H       1  UNL1        0.0310
     68 H          24.5861   -0.5349    0.0000 H       1  UNL1        0.0310
     69 H          16.8608   -0.5349    0.0000 H       1  UNL1        0.0310
     70 H          17.6579   -0.5349    0.0000 H       1  UNL1        0.0310
     71 H          27.2531   -0.5349    0.0000 H       1  UNL1        0.0310
     72 H          28.0502   -0.5349    0.0000 H       1  UNL1        0.0310
     73 H          30.6483    0.9149    0.0000 H       1  UNL1        0.0313
     74 H          29.8512    0.9149    0.0000 H       1  UNL1        0.0313
     75 H          13.3278    0.9149    0.0000 H       1  UNL1        0.0313
     76 H          12.5307    0.9149    0.0000 H       1  UNL1        0.0313
     77 H          13.3967   -0.5349    0.0000 H       1  UNL1        0.0310
     78 H          14.1938   -0.5349    0.0000 H       1  UNL1        0.0310
     79 H          30.7172   -0.5349    0.0000 H       1  UNL1        0.0310
     80 H          31.5143   -0.5349    0.0000 H       1  UNL1        0.0310
     81 H          21.5895    1.0600    0.0000 H       1  UNL1        0.0572
     82 H          25.0536    1.0600    0.0000 H       1  UNL1        0.0572
     83 H          18.1254    1.0600    0.0000 H       1  UNL1        0.0572
     84 H          28.5177    1.0600    0.0000 H       1  UNL1        0.0572
     85 H          14.6613    1.0600    0.0000 H       1  UNL1        0.0572
     86 H          34.1124    0.9149    0.0000 H       1  UNL1        0.0313
     87 H          33.3153    0.9149    0.0000 H       1  UNL1        0.0313
     88 H           9.9326   -0.5349    0.0000 H       1  UNL1        0.0310
     89 H          10.7297   -0.5349    0.0000 H       1  UNL1        0.0310
     90 H           9.8637    0.9149    0.0000 H       1  UNL1        0.0313
     91 H           9.0666    0.9149    0.0000 H       1  UNL1        0.0313
     92 H          31.9818    1.0600    0.0000 H       1  UNL1        0.0572
     93 H          34.1813   -0.5349    0.0000 H       1  UNL1        0.0310
     94 H          34.9784   -0.5349    0.0000 H       1  UNL1        0.0310
     95 H          11.1972    1.0600    0.0000 H       1  UNL1        0.0572
     96 H          21.8355   -1.0600    0.0000 H       1  UNL1        0.0274
     97 H          22.4555   -1.6800    0.0000 H       1  UNL1        0.0274
     98 H          23.0755   -1.0600    0.0000 H       1  UNL1        0.0274
     99 H          18.3714   -1.0600    0.0000 H       1  UNL1        0.0274
    100 H          18.9914   -1.6800    0.0000 H       1  UNL1        0.0274
    101 H          19.6114   -1.0600    0.0000 H       1  UNL1        0.0274
    102 H          25.2996   -1.0600    0.0000 H       1  UNL1        0.0274
    103 H          25.9196   -1.6800    0.0000 H       1  UNL1        0.0274
    104 H          26.5396   -1.0600    0.0000 H       1  UNL1        0.0274
    105 H          14.9073   -1.0600    0.0000 H       1  UNL1        0.0274
    106 H          15.5273   -1.6800    0.0000 H       1  UNL1        0.0274
    107 H          16.1473   -1.0600    0.0000 H       1  UNL1        0.0274
    108 H          28.7637   -1.0600    0.0000 H       1  UNL1        0.0274
    109 H          29.3837   -1.6800    0.0000 H       1  UNL1        0.0274
    110 H          30.0037   -1.0600    0.0000 H       1  UNL1        0.0274
    111 H          35.4459    1.0600    0.0000 H       1  UNL1        0.0572
    112 H          11.4432   -1.0600    0.0000 H       1  UNL1        0.0274
    113 H          12.0632   -1.6800    0.0000 H       1  UNL1        0.0274
    114 H          12.6832   -1.0600    0.0000 H       1  UNL1        0.0274
    115 H          37.5765    0.9149    0.0000 H       1  UNL1        0.0313
    116 H          36.7794    0.9149    0.0000 H       1  UNL1        0.0313
    117 H           6.4685   -0.5349    0.0000 H       1  UNL1        0.0310
    118 H           7.2656   -0.5349    0.0000 H       1  UNL1        0.0310
    119 H           7.7331    1.0600    0.0000 H       1  UNL1        0.0572
    120 H          32.2278   -1.0600    0.0000 H       1  UNL1        0.0274
    121 H          32.8478   -1.6800    0.0000 H       1  UNL1        0.0274
    122 H          33.4678   -1.0600    0.0000 H       1  UNL1        0.0274
    123 H           6.3996    0.9149    0.0000 H       1  UNL1        0.0313
    124 H           5.6025    0.9149    0.0000 H       1  UNL1        0.0313
    125 H          37.6454   -0.5349    0.0000 H       1  UNL1        0.0310
    126 H          38.4425   -0.5349    0.0000 H       1  UNL1        0.0310
    127 H           7.9791   -1.0600    0.0000 H       1  UNL1        0.0274
    128 H           8.5991   -1.6800    0.0000 H       1  UNL1        0.0274
    129 H           9.2191   -1.0600    0.0000 H       1  UNL1        0.0274
    130 H          35.6919   -1.0600    0.0000 H       1  UNL1        0.0274
    131 H          36.3119   -1.6800    0.0000 H       1  UNL1        0.0274
    132 H          36.9319   -1.0600    0.0000 H       1  UNL1        0.0274
    133 H          38.9100    1.0600    0.0000 H       1  UNL1        0.0572
    134 H           4.5150   -1.0600    0.0000 H       1  UNL1        0.0274
    135 H           5.1350   -1.6800    0.0000 H       1  UNL1        0.0274
    136 H           5.7550   -1.0600    0.0000 H       1  UNL1        0.0274
    137 H           4.2690    1.0600    0.0000 H       1  UNL1        0.0594
    138 H           3.0044   -0.5349    0.0000 H       1  UNL1        0.0601
    139 H           3.8015   -0.5349    0.0000 H       1  UNL1        0.0601
    140 H          40.9521   -0.0969    0.0000 H       1  UNL1        0.0274
    141 H          41.1790    0.7500    0.0000 H       1  UNL1        0.0274
    142 H          40.3321    0.9769    0.0000 H       1  UNL1        0.0274
    143 H          39.1560   -1.0600    0.0000 H       1  UNL1        0.0274
    144 H          39.7760   -1.6800    0.0000 H       1  UNL1        0.0274
    145 H          40.3960   -1.0600    0.0000 H       1  UNL1        0.0274
    146 H           2.0000    0.1300    0.0000 H       1  UNL1        0.2098
@<TRIPOS>BOND
     1     1    54    1
     2     1   146    1
     3     2     7    1
     4     2    11    1
     5     2    57    1
     6     2    58    1
     7     3     6    1
     8     3    12    1
     9     3    59    1
    10     3    60    1
    11     4     9    1
    12     4    13    1
    13     4    61    1
    14     4    62    1
    15     5     8    1
    16     5    16    1
    17     5    63    1
    18     5    64    1
    19     6    19    1
    20     6    65    1
    21     6    66    1
    22     7    20    1
    23     7    67    1
    24     7    68    1
    25     8    21    1
    26     8    69    1
    27     8    70    1
    28     9    23    1
    29     9    71    1
    30     9    72    1
    31    10    17    1
    32    10    18    1
    33    10    73    1
    34    10    74    1
    35    11    19    2
    36    11    33    1
    37    12    21    2
    38    12    34    1
    39    13    20    2
    40    13    35    1
    41    14    15    1
    42    14    22    1
    43    14    75    1
    44    14    76    1
    45    15    24    1
    46    15    77    1
    47    15    78    1
    48    16    24    2
    49    16    36    1
    50    17    29    1
    51    17    79    1
    52    17    80    1
    53    18    23    2
    54    18    37    1
    55    19    81    1
    56    20    82    1
    57    21    83    1
    58    22    31    2
    59    22    40    1
    60    23    84    1
    61    24    85    1
    62    25    27    1
    63    25    30    1
    64    25    86    1
    65    25    87    1
    66    26    28    1
    67    26    31    1
    68    26    88    1
    69    26    89    1
    70    27    29    2
    71    27    44    1
    72    28    32    1
    73    28    90    1
    74    28    91    1
    75    29    92    1
    76    30    38    1
    77    30    93    1
    78    30    94    1
    79    31    95    1
    80    32    43    2
    81    32    47    1
    82    33    96    1
    83    33    97    1
    84    33    98    1
    85    34    99    1
    86    34   100    1
    87    34   101    1
    88    35   102    1
    89    35   103    1
    90    35   104    1
    91    36   105    1
    92    36   106    1
    93    36   107    1
    94    37   108    1
    95    37   109    1
    96    37   110    1
    97    38    39    2
    98    38   111    1
    99    39    41    1
   100    39    48    1
   101    40   112    1
   102    40   113    1
   103    40   114    1
   104    41    46    1
   105    41   115    1
   106    41   116    1
   107    42    43    1
   108    42    45    1
   109    42   117    1
   110    42   118    1
   111    43   119    1
   112    44   120    1
   113    44   121    1
   114    44   122    1
   115    45    49    1
   116    45   123    1
   117    45   124    1
   118    46    50    1
   119    46   125    1
   120    46   126    1
   121    47   127    1
   122    47   128    1
   123    47   129    1
   124    48   130    1
   125    48   131    1
   126    48   132    1
   127    49    51    1
   128    49    53    2
   129    50    52    2
   130    50   133    1
   131    51   134    1
   132    51   135    1
   133    51   136    1
   134    52    55    1
   135    52    56    1
   136    53    54    1
   137    53   137    1
   138    54   138    1
   139    54   139    1
   140    55   140    1
   141    55   141    1
   142    55   142    1
   143    56   143    1
   144    56   144    1
   145    56   145    1
