@<TRIPOS>MOLECULE
IMPHY007678
 40 41 0 0 0
SMALL
GASTEIGER

@<TRIPOS>ATOM
      1 O           5.5878   -1.0546    0.0000 O.3     1  UNL1       -0.3656
      2 C           5.0000   -0.2456    0.0000 C.3     1  UNL1        0.0766
      3 C           5.5878    0.5634    0.0000 C.3     1  UNL1       -0.0117
      4 C           6.5388    0.2544    0.0000 C.3     1  UNL1       -0.0177
      5 C           4.5000   -1.1116    0.0000 C.3     1  UNL1       -0.0195
      6 C           4.5000    0.6204    0.0000 C.3     1  UNL1       -0.0050
      7 C           6.5388   -0.7456    0.0000 C.3     1  UNL1        0.0781
      8 C           3.5000   -1.1116    0.0000 C.3     1  UNL1       -0.0294
      9 C           5.2788    1.5144    0.0000 C.3     1  UNL1       -0.0597
     10 C           3.5000    0.6204    0.0000 C.2     1  UNL1       -0.0823
     11 C           3.0000   -0.2456    0.0000 C.2     1  UNL1       -0.0763
     12 C           7.3479   -1.3334    0.0000 C.2     1  UNL1       -0.0569
     13 C           2.0000   -0.2456    0.0000 C.3     1  UNL1       -0.0438
     14 C           8.2614   -0.9267    0.0000 C.2     1  UNL1       -0.0772
     15 C           9.0704   -1.5144    0.0000 C.3     1  UNL1       -0.0440
     16 C           8.3659    0.0679    0.0000 C.3     1  UNL1       -0.0440
     17 H           6.0262    1.0018    0.0000 H       1  UNL1        0.0327
     18 H           7.1554    0.1896    0.0000 H       1  UNL1        0.0297
     19 H           6.6678    0.8608    0.0000 H       1  UNL1        0.0297
     20 H           4.3923   -1.7222    0.0000 H       1  UNL1        0.0296
     21 H           5.0826   -1.3237    0.0000 H       1  UNL1        0.0296
     22 H           5.0826    0.8325    0.0000 H       1  UNL1        0.0335
     23 H           4.3923    1.2310    0.0000 H       1  UNL1        0.0335
     24 H           6.4418   -1.3580    0.0000 H       1  UNL1        0.0641
     25 H           2.9174   -1.3237    0.0000 H       1  UNL1        0.0311
     26 H           3.6077   -1.7222    0.0000 H       1  UNL1        0.0311
     27 H           5.8684    1.7060    0.0000 H       1  UNL1        0.0233
     28 H           5.0872    2.1041    0.0000 H       1  UNL1        0.0233
     29 H           4.6891    1.3229    0.0000 H       1  UNL1        0.0233
     30 H           3.1900    1.1573    0.0000 H       1  UNL1        0.0572
     31 H           7.2830   -1.9500    0.0000 H       1  UNL1        0.0597
     32 H           2.0000    0.3744    0.0000 H       1  UNL1        0.0274
     33 H           1.3800   -0.2456    0.0000 H       1  UNL1        0.0274
     34 H           2.0000   -0.8656    0.0000 H       1  UNL1        0.0274
     35 H           8.7060   -2.0160    0.0000 H       1  UNL1        0.0274
     36 H           9.5720   -1.8789    0.0000 H       1  UNL1        0.0274
     37 H           9.4349   -1.0129    0.0000 H       1  UNL1        0.0274
     38 H           8.9825    0.0030    0.0000 H       1  UNL1        0.0274
     39 H           8.4307    0.6845    0.0000 H       1  UNL1        0.0274
     40 H           7.7493    0.1327    0.0000 H       1  UNL1        0.0274
@<TRIPOS>BOND
     1     1     2    1
     2     1     7    1
     3     2     3    1
     4     2     5    1
     5     2     6    1
     6     3     4    1
     7     3     9    1
     8     3    17    1
     9     4     7    1
    10     4    18    1
    11     4    19    1
    12     5     8    1
    13     5    20    1
    14     5    21    1
    15     6    10    1
    16     6    22    1
    17     6    23    1
    18     7    12    1
    19     7    24    1
    20     8    11    1
    21     8    25    1
    22     8    26    1
    23     9    27    1
    24     9    28    1
    25     9    29    1
    26    10    11    2
    27    10    30    1
    28    11    13    1
    29    12    14    2
    30    12    31    1
    31    13    32    1
    32    13    33    1
    33    13    34    1
    34    14    15    1
    35    14    16    1
    36    15    35    1
    37    15    36    1
    38    15    37    1
    39    16    38    1
    40    16    39    1
    41    16    40    1
