@<TRIPOS>MOLECULE
IMPHY009111
 69 73 0 0 0
SMALL
GASTEIGER

@<TRIPOS>ATOM
      1 O           5.1350    0.5000    0.0000 O.3     1  UNL1       -0.3609
      2 O           6.0010   -2.0000    0.0000 O.3     1  UNL1       -0.3460
      3 O           4.2690   -2.0000    0.0000 O.3     1  UNL1       -0.3865
      4 O           2.5369   -1.0000    0.0000 O.3     1  UNL1       -0.3865
      5 O           2.5369    1.0000    0.0000 O.3     1  UNL1       -0.3862
      6 O           6.8671   -3.5000    0.0000 O.3     1  UNL1       -0.3176
      7 O           7.7331   -1.0000    0.0000 O.3     1  UNL1       -0.3841
      8 O           9.4651   -2.0000    0.0000 O.3     1  UNL1       -0.3863
      9 O           9.4651   -4.0000    0.0000 O.3     1  UNL1       -0.3841
     10 O           6.0290    1.9653    0.0000 O.2     1  UNL1       -0.4540
     11 O           7.7331   -5.0000    0.0000 O.3     1  UNL1       -0.3648
     12 O           2.5369    2.0000    0.0000 O.3     1  UNL1       -0.5062
     13 O           4.2690    5.0000    0.0000 O.3     1  UNL1       -0.5058
     14 O           6.0174    5.0346    0.0000 O.2     1  UNL1       -0.2869
     15 O          10.3914    0.4658    0.0000 O.3     1  UNL1       -0.5068
     16 C           5.1350   -0.5000    0.0000 C.3     1  UNL1        0.1112
     17 C           4.2690   -1.0000    0.0000 C.3     1  UNL1        0.1118
     18 C           3.4030   -0.5000    0.0000 C.3     1  UNL1        0.1121
     19 C           3.4030    0.5000    0.0000 C.3     1  UNL1        0.1139
     20 C           4.2690    1.0000    0.0000 C.3     1  UNL1        0.1193
     21 C           6.0010   -1.0000    0.0000 C.3     1  UNL1        0.0795
     22 C           4.2690    2.0000    0.0000 C.ar    1  UNL1        0.0682
     23 C           6.8671   -2.5000    0.0000 C.3     1  UNL1        0.1905
     24 C           7.7331   -2.0000    0.0000 C.3     1  UNL1        0.1343
     25 C           8.5991   -2.5000    0.0000 C.3     1  UNL1        0.1163
     26 C           8.5991   -3.5000    0.0000 C.3     1  UNL1        0.1341
     27 C           7.7331   -4.0000    0.0000 C.3     1  UNL1        0.1879
     28 C           5.1350    2.5000    0.0000 C.ar    1  UNL1        0.1520
     29 C           3.4030    2.5000    0.0000 C.ar    1  UNL1        0.1296
     30 C           5.1350    3.5000    0.0000 C.ar    1  UNL1        0.1058
     31 C           3.4030    3.5000    0.0000 C.ar    1  UNL1        0.0226
     32 C           4.2690    4.0000    0.0000 C.ar    1  UNL1        0.1347
     33 C           6.0290    4.0347    0.0000 C.ar    1  UNL1        0.1966
     34 C           6.9350    2.4792    0.0000 C.ar    1  UNL1        0.1392
     35 C           6.9350    3.5208    0.0000 C.ar    1  UNL1        0.0288
     36 C           7.7991    1.9758    0.0000 C.ar    1  UNL1        0.0176
     37 C           7.7953    0.9759    0.0000 C.ar    1  UNL1       -0.0476
     38 C           8.6671    2.4725    0.0000 C.ar    1  UNL1       -0.0476
     39 C           8.6594    0.4725    0.0000 C.ar    1  UNL1       -0.0195
     40 C           9.5312    1.9692    0.0000 C.ar    1  UNL1       -0.0195
     41 C           9.5273    0.9692    0.0000 C.ar    1  UNL1        0.1169
     42 H           5.6720   -0.1900    0.0000 H       1  UNL1        0.0646
     43 H           4.8059   -1.3100    0.0000 H       1  UNL1        0.0647
     44 H           3.4030   -1.1200    0.0000 H       1  UNL1        0.0647
     45 H           3.4030    1.1200    0.0000 H       1  UNL1        0.0649
     46 H           4.8059    1.3100    0.0000 H       1  UNL1        0.0676
     47 H           6.6116   -1.1077    0.0000 H       1  UNL1        0.0587
     48 H           6.2131   -0.4174    0.0000 H       1  UNL1        0.0587
     49 H           6.3301   -2.8100    0.0000 H       1  UNL1        0.0938
     50 H           8.2700   -1.6900    0.0000 H       1  UNL1        0.0671
     51 H           9.1360   -2.8100    0.0000 H       1  UNL1        0.0648
     52 H           8.5991   -4.1200    0.0000 H       1  UNL1        0.0671
     53 H           7.1962   -4.3100    0.0000 H       1  UNL1        0.0936
     54 H           3.7320   -2.3100    0.0000 H       1  UNL1        0.2100
     55 H           2.5369   -1.6200    0.0000 H       1  UNL1        0.2100
     56 H           2.0000    0.6900    0.0000 H       1  UNL1        0.2100
     57 H           2.8660    3.8100    0.0000 H       1  UNL1        0.0691
     58 H           8.2700   -0.6900    0.0000 H       1  UNL1        0.2101
     59 H          10.0021   -2.3100    0.0000 H       1  UNL1        0.2100
     60 H           9.4651   -4.6200    0.0000 H       1  UNL1        0.2101
     61 H           7.1962   -5.3100    0.0000 H       1  UNL1        0.2126
     62 H           2.0000    2.3100    0.0000 H       1  UNL1        0.2922
     63 H           7.4708    3.8329    0.0000 H       1  UNL1        0.0693
     64 H           3.7320    5.3100    0.0000 H       1  UNL1        0.2922
     65 H           7.2571    0.6679    0.0000 H       1  UNL1        0.0626
     66 H           8.6694    3.0925    0.0000 H       1  UNL1        0.0626
     67 H           8.6570   -0.1475    0.0000 H       1  UNL1        0.0654
     68 H          10.0693    2.2771    0.0000 H       1  UNL1        0.0654
     69 H          10.9295    0.7738    0.0000 H       1  UNL1        0.2921
@<TRIPOS>BOND
     1     1    16    1
     2     1    20    1
     3     2    21    1
     4     2    23    1
     5     3    17    1
     6     3    54    1
     7     4    18    1
     8     4    55    1
     9     5    19    1
    10     5    56    1
    11     6    23    1
    12     6    27    1
    13     7    24    1
    14     7    58    1
    15     8    25    1
    16     8    59    1
    17     9    26    1
    18     9    60    1
    19    10    28   ar
    20    10    34   ar
    21    11    27    1
    22    11    61    1
    23    12    29    1
    24    12    62    1
    25    13    32    1
    26    13    64    1
    27    14    33    2
    28    15    41    1
    29    15    69    1
    30    16    17    1
    31    16    21    1
    32    16    42    1
    33    17    18    1
    34    17    43    1
    35    18    19    1
    36    18    44    1
    37    19    20    1
    38    19    45    1
    39    20    22    1
    40    20    46    1
    41    21    47    1
    42    21    48    1
    43    22    28   ar
    44    22    29   ar
    45    23    24    1
    46    23    49    1
    47    24    25    1
    48    24    50    1
    49    25    26    1
    50    25    51    1
    51    26    27    1
    52    26    52    1
    53    27    53    1
    54    28    30   ar
    55    29    31   ar
    56    30    32   ar
    57    30    33   ar
    58    31    32   ar
    59    31    57    1
    60    33    35   ar
    61    34    35   ar
    62    34    36    1
    63    35    63    1
    64    36    37   ar
    65    36    38   ar
    66    37    39   ar
    67    37    65    1
    68    38    40   ar
    69    38    66    1
    70    39    41   ar
    71    39    67    1
    72    40    41   ar
    73    40    68    1
