@<TRIPOS>MOLECULE
IMPHY014512
 39 41 0 0 0
SMALL
GASTEIGER

@<TRIPOS>ATOM
      1 C           3.8660   -0.4519    0.0000 C.3     1  UNL1       -0.0196
      2 C           3.0000    0.0481    0.0000 C.3     1  UNL1       -0.0291
      3 C           3.0000    1.0481    0.0000 C.3     1  UNL1       -0.0250
      4 C           3.8660    1.5481    0.0000 C.3     1  UNL1       -0.0147
      5 C           3.6568   -1.4238    0.0000 C.3     1  UNL1       -0.0377
      6 C           4.7320    0.0481    0.0000 C.3     1  UNL1       -0.0460
      7 C           3.4660    0.1481    0.0000 C.3     1  UNL1       -0.0255
      8 C           2.2630   -0.6190    0.0000 C.3     1  UNL1       -0.0489
      9 C           4.7320    1.0481    0.0000 C.3     1  UNL1       -0.0455
     10 C           2.6681   -1.5268    0.0000 C.3     1  UNL1       -0.0497
     11 C           3.4660    0.9481    0.0000 C.2     1  UNL1       -0.0725
     12 C           2.2340    1.6908    0.0000 C.3     1  UNL1       -0.0590
     13 C           2.0000    1.0481    0.0000 C.3     1  UNL1       -0.0590
     14 C           4.3247   -2.1681    0.0000 C.3     1  UNL1       -0.0619
     15 C           3.0434    1.8544    0.0000 C.2     1  UNL1       -0.0991
     16 H           2.2639    0.4731    0.0000 H       1  UNL1        0.0312
     17 H           3.8660    2.3981    0.0000 H       1  UNL1        0.0351
     18 H           4.2560   -1.2646    0.0000 H       1  UNL1        0.0304
     19 H           4.9441   -0.5346    0.0000 H       1  UNL1        0.0271
     20 H           5.3426    0.1557    0.0000 H       1  UNL1        0.0271
     21 H           2.8790    0.3476    0.0000 H       1  UNL1        0.0316
     22 H           4.0594    0.3277    0.0000 H       1  UNL1        0.0316
     23 H           1.8976   -0.1182    0.0000 H       1  UNL1        0.0268
     24 H           1.7265   -0.9298    0.0000 H       1  UNL1        0.0268
     25 H           5.3426    0.9404    0.0000 H       1  UNL1        0.0271
     26 H           4.9441    1.6307    0.0000 H       1  UNL1        0.0271
     27 H           2.0785   -1.7186    0.0000 H       1  UNL1        0.0268
     28 H           2.7968   -2.1333    0.0000 H       1  UNL1        0.0268
     29 H           2.6325    2.1658    0.0000 H       1  UNL1        0.0235
     30 H           1.7590    2.0894    0.0000 H       1  UNL1        0.0235
     31 H           1.8354    1.2159    0.0000 H       1  UNL1        0.0235
     32 H           2.0000    1.6681    0.0000 H       1  UNL1        0.0235
     33 H           1.3800    1.0481    0.0000 H       1  UNL1        0.0235
     34 H           2.0000    0.4281    0.0000 H       1  UNL1        0.0235
     35 H           3.8632   -2.5821    0.0000 H       1  UNL1        0.0233
     36 H           4.7387   -2.6295    0.0000 H       1  UNL1        0.0233
     37 H           4.7861   -1.7540    0.0000 H       1  UNL1        0.0233
     38 H           3.3990    2.3622    0.0000 H       1  UNL1        0.0534
     39 H           2.4258    1.9084    0.0000 H       1  UNL1        0.0534
@<TRIPOS>BOND
     1     1     2    1
     2     1     5    1
     3     1     6    1
     4     1     7    1
     5     2     3    1
     6     2     8    1
     7     2    16    1
     8     3     4    1
     9     3    12    1
    10     3    13    1
    11     4     9    1
    12     4    11    1
    13     4    17    1
    14     5    10    1
    15     5    14    1
    16     5    18    1
    17     6     9    1
    18     6    19    1
    19     6    20    1
    20     7    11    1
    21     7    21    1
    22     7    22    1
    23     8    10    1
    24     8    23    1
    25     8    24    1
    26     9    25    1
    27     9    26    1
    28    10    27    1
    29    10    28    1
    30    11    15    2
    31    12    29    1
    32    12    30    1
    33    12    31    1
    34    13    32    1
    35    13    33    1
    36    13    34    1
    37    14    35    1
    38    14    36    1
    39    14    37    1
    40    15    38    1
    41    15    39    1
