@<TRIPOS>MOLECULE
IMPHY016060
 34 35 0 0 0
SMALL
GASTEIGER

@<TRIPOS>ATOM
      1 O           2.8660    1.5000    0.0000 O.2     1  UNL1       -0.2977
      2 C           8.0627   -0.5000    0.0000 C.3     1  UNL1       -0.0281
      3 C           7.1962    0.0000    0.0000 C.3     1  UNL1       -0.0283
      4 C           7.1962   -1.0000    0.0000 C.3     1  UNL1       -0.0286
      5 C           6.3301    0.5000    0.0000 C.3     1  UNL1       -0.0281
      6 C           6.3301   -1.5000    0.0000 C.3     1  UNL1       -0.0309
      7 C           8.5627   -1.3660    0.0000 C.3     1  UNL1       -0.0593
      8 C           8.5627    0.3660    0.0000 C.3     1  UNL1       -0.0593
      9 C           5.4641    0.0000    0.0000 C.2     1  UNL1       -0.0727
     10 C           5.4641   -1.0000    0.0000 C.2     1  UNL1       -0.0845
     11 C           4.5981    0.5000    0.0000 C.3     1  UNL1       -0.0251
     12 C           3.7320    0.0000    0.0000 C.3     1  UNL1        0.0092
     13 C           2.8660    0.5000    0.0000 C.2     1  UNL1        0.1306
     14 C           2.0000   -0.0000    0.0000 C.3     1  UNL1       -0.0061
     15 H           7.5061    0.5370    0.0000 H       1  UNL1        0.0312
     16 H           7.5061   -1.5370    0.0000 H       1  UNL1        0.0312
     17 H           6.7287    0.9749    0.0000 H       1  UNL1        0.0313
     18 H           5.9316    0.9749    0.0000 H       1  UNL1        0.0313
     19 H           5.9316   -1.9750    0.0000 H       1  UNL1        0.0310
     20 H           6.7287   -1.9750    0.0000 H       1  UNL1        0.0310
     21 H           8.0258   -1.6760    0.0000 H       1  UNL1        0.0235
     22 H           8.8727   -1.9030    0.0000 H       1  UNL1        0.0235
     23 H           9.0996   -1.0560    0.0000 H       1  UNL1        0.0235
     24 H           9.0996    0.0560    0.0000 H       1  UNL1        0.0235
     25 H           8.8727    0.9030    0.0000 H       1  UNL1        0.0235
     26 H           8.0258    0.6760    0.0000 H       1  UNL1        0.0235
     27 H           4.9272   -1.3100    0.0000 H       1  UNL1        0.0572
     28 H           4.9966    0.9749    0.0000 H       1  UNL1        0.0314
     29 H           4.1996    0.9749    0.0000 H       1  UNL1        0.0314
     30 H           3.3335   -0.4749    0.0000 H       1  UNL1        0.0345
     31 H           4.1306   -0.4749    0.0000 H       1  UNL1        0.0345
     32 H           1.6900    0.5369    0.0000 H       1  UNL1        0.0306
     33 H           1.4631   -0.3100    0.0000 H       1  UNL1        0.0306
     34 H           2.3100   -0.5369    0.0000 H       1  UNL1        0.0306
@<TRIPOS>BOND
     1     1    13    2
     2     2     3    1
     3     2     4    1
     4     2     7    1
     5     2     8    1
     6     3     4    1
     7     3     5    1
     8     3    15    1
     9     4     6    1
    10     4    16    1
    11     5     9    1
    12     5    17    1
    13     5    18    1
    14     6    10    1
    15     6    19    1
    16     6    20    1
    17     7    21    1
    18     7    22    1
    19     7    23    1
    20     8    24    1
    21     8    25    1
    22     8    26    1
    23     9    10    2
    24     9    11    1
    25    10    27    1
    26    11    12    1
    27    11    28    1
    28    11    29    1
    29    12    13    1
    30    12    30    1
    31    12    31    1
    32    13    14    1
    33    14    32    1
    34    14    33    1
    35    14    34    1
