@<TRIPOS>MOLECULE
IMPHY007611
 20 21 0 0 0
SMALL
GASTEIGER

@<TRIPOS>ATOM
      1 O           4.6783   -1.5547    0.0000 O.2     1  UNL1       -0.4076
      2 O           3.7320    1.7500    0.0000 O.2     1  UNL1       -0.2923
      3 O           6.2619   -0.7500    0.0000 O.2     1  UNL1       -0.2229
      4 N           4.6783    0.0547    0.0000 N.ar    1  UNL1       -0.2874
      5 C           3.7320   -0.2500    0.0000 C.ar    1  UNL1        0.0978
      6 C           2.8660    0.2500    0.0000 C.ar    1  UNL1        0.0441
      7 C           3.7320   -1.2500    0.0000 C.ar    1  UNL1        0.1575
      8 C           2.0000   -0.2500    0.0000 C.ar    1  UNL1       -0.0491
      9 C           2.8660   -1.7500    0.0000 C.ar    1  UNL1       -0.0171
     10 C           2.0000   -1.2500    0.0000 C.ar    1  UNL1       -0.0575
     11 C           2.8660    1.2500    0.0000 C.2     1  UNL1        0.1622
     12 C           5.2619   -0.7500    0.0000 C.ar    1  UNL1        0.4187
     13 C           2.0000    1.7500    0.0000 C.3     1  UNL1       -0.0013
     14 H           4.8709    0.6441    0.0000 H       1  UNL1        0.1721
     15 H           1.4631    0.0600    0.0000 H       1  UNL1        0.0625
     16 H           2.8660   -2.3700    0.0000 H       1  UNL1        0.0655
     17 H           1.4631   -1.5600    0.0000 H       1  UNL1        0.0619
     18 H           2.3100    2.2869    0.0000 H       1  UNL1        0.0309
     19 H           1.4631    2.0600    0.0000 H       1  UNL1        0.0309
     20 H           1.6900    1.2131    0.0000 H       1  UNL1        0.0309
@<TRIPOS>BOND
     1     1     7   ar
     2     1    12   ar
     3     2    11    2
     4     3    12    2
     5     4     5   ar
     6     4    12   ar
     7     4    14    1
     8     5     6   ar
     9     5     7   ar
    10     6     8   ar
    11     6    11    1
    12     7     9   ar
    13     8    10   ar
    14     8    15    1
    15     9    10   ar
    16     9    16    1
    17    10    17    1
    18    11    13    1
    19    13    18    1
    20    13    19    1
    21    13    20    1
