@<TRIPOS>MOLECULE
IMPHY014367
 51 55 0 0 0
SMALL
GASTEIGER

@<TRIPOS>ATOM
      1 O           7.7199   -1.2094    0.0000 O.3     1  UNL1       -0.4586
      2 O           6.7620   -2.8327    0.0000 O.3     1  UNL1       -0.3749
      3 O           5.3540    2.6382    0.0000 O.3     1  UNL1       -0.4562
      4 O           5.3578   -3.5003    0.0000 O.3     1  UNL1       -0.3884
      5 O           7.7013   -2.9669    0.0000 O.2     1  UNL1       -0.2475
      6 O           7.1238    2.6004    0.0000 O.2     1  UNL1       -0.2505
      7 O           2.0000    2.9444    0.0000 O.2     1  UNL1       -0.4706
      8 C           6.2360   -0.9310    0.0000 C.3     1  UNL1        0.0499
      9 C           5.3699   -0.4310    0.0000 C.3     1  UNL1       -0.0226
     10 C           5.3699    0.5690    0.0000 C.3     1  UNL1       -0.0119
     11 C           7.1020   -0.4310    0.0000 C.3     1  UNL1        0.1128
     12 C           6.2520   -1.9725    0.0000 C.3     1  UNL1        0.1971
     13 C           6.2360    1.0690    0.0000 C.3     1  UNL1        0.0656
     14 C           7.1020    0.5690    0.0000 C.3     1  UNL1       -0.0016
     15 C           4.4599   -0.9379    0.0000 C.3     1  UNL1       -0.0465
     16 C           5.3540   -2.5003    0.0000 C.3     1  UNL1        0.0950
     17 C           4.4599    1.0758    0.0000 C.3     1  UNL1       -0.0049
     18 C           4.4519   -1.9795    0.0000 C.3     1  UNL1       -0.0233
     19 C           5.3699   -1.4310    0.0000 C.3     1  UNL1       -0.0526
     20 C           4.5039    0.0690    0.0000 C.3     1  UNL1       -0.0584
     21 C           7.2400   -2.0797    0.0000 C.2     1  UNL1        0.3427
     22 C           4.4519    2.1174    0.0000 C.3     1  UNL1        0.1315
     23 C           6.2520    2.1105    0.0000 C.2     1  UNL1        0.3114
     24 C           3.5840    2.6141    0.0000 C.ar    1  UNL1        0.0304
     25 C           3.4756    3.6082    0.0000 C.ar    1  UNL1       -0.0172
     26 C           2.6720    2.2038    0.0000 C.ar    1  UNL1        0.0983
     27 C           2.4967    3.8123    0.0000 C.ar    1  UNL1        0.0921
     28 H           6.1061   -0.0060    0.0000 H       1  UNL1        0.0314
     29 H           7.9046   -0.1512    0.0000 H       1  UNL1        0.0741
     30 H           6.9753    1.4883    0.0000 H       1  UNL1        0.0420
     31 H           7.7126    0.4613    0.0000 H       1  UNL1        0.0309
     32 H           7.3140    1.1516    0.0000 H       1  UNL1        0.0309
     33 H           4.2554   -0.3526    0.0000 H       1  UNL1        0.0269
     34 H           3.8483   -1.0392    0.0000 H       1  UNL1        0.0269
     35 H           4.8177   -2.8113    0.0000 H       1  UNL1        0.0628
     36 H           3.8483    1.1772    0.0000 H       1  UNL1        0.0310
     37 H           4.2554    0.4905    0.0000 H       1  UNL1        0.0310
     38 H           3.8419   -1.8687    0.0000 H       1  UNL1        0.0291
     39 H           4.2384   -2.5615    0.0000 H       1  UNL1        0.0291
     40 H           5.0599   -0.8941    0.0000 H       1  UNL1        0.0237
     41 H           4.8330   -1.7410    0.0000 H       1  UNL1        0.0237
     42 H           5.6799   -1.9680    0.0000 H       1  UNL1        0.0237
     43 H           4.1939    0.6059    0.0000 H       1  UNL1        0.0235
     44 H           3.9670   -0.2410    0.0000 H       1  UNL1        0.0235
     45 H           4.8139   -0.4680    0.0000 H       1  UNL1        0.0235
     46 H           4.4507    2.7374    0.0000 H       1  UNL1        0.0786
     47 H           6.4582   -3.3732    0.0000 H       1  UNL1        0.2110
     48 H           4.8221   -3.8123    0.0000 H       1  UNL1        0.2099
     49 H           3.9348    4.0248    0.0000 H       1  UNL1        0.0653
     50 H           2.5454    1.5969    0.0000 H       1  UNL1        0.1033
     51 H           2.2423    4.3778    0.0000 H       1  UNL1        0.1029
@<TRIPOS>BOND
     1     1    11    1
     2     1    21    1
     3    12     2    1
     4     2    47    1
     5     3    22    1
     6     3    23    1
     7    16     4    1
     8     4    48    1
     9     5    21    2
    10     6    23    2
    11     7    26   ar
    12     7    27   ar
    13     8     9    1
    14     8    11    1
    15     8    12    1
    16     8    19    1
    17     9    10    1
    18     9    15    1
    19     9    28    1
    20    10    13    1
    21    10    17    1
    22    10    20    1
    23    11    14    1
    24    11    29    1
    25    12    16    1
    26    12    21    1
    27    13    14    1
    28    13    23    1
    29    13    30    1
    30    14    31    1
    31    14    32    1
    32    15    18    1
    33    15    33    1
    34    15    34    1
    35    16    18    1
    36    16    35    1
    37    17    22    1
    38    17    36    1
    39    17    37    1
    40    18    38    1
    41    18    39    1
    42    19    40    1
    43    19    41    1
    44    19    42    1
    45    20    43    1
    46    20    44    1
    47    20    45    1
    48    22    24    1
    49    22    46    1
    50    24    25   ar
    51    24    26   ar
    52    25    27   ar
    53    25    49    1
    54    26    50    1
    55    27    51    1
