@<TRIPOS>MOLECULE
IMPHY007511
 108 111 0 0 0
SMALL
GASTEIGER

@<TRIPOS>ATOM
      1 O           7.6262   -1.4219    0.0000 O.3     1  UNL1       -0.3401
      2 O           8.4922    1.0781    0.0000 O.3     1  UNL1       -0.3398
      3 O           6.7601    1.0781    0.0000 O.3     1  UNL1       -0.3405
      4 O           5.8941   -1.4219    0.0000 O.3     1  UNL1       -0.3405
      5 O           9.3582   -1.4219    0.0000 O.3     1  UNL1       -0.3355
      6 O          10.1979    1.3789    0.0000 O.3     1  UNL1       -0.3405
      7 O           5.0544    1.3790    0.0000 O.3     1  UNL1       -0.3405
      8 O          11.0903   -1.4219    0.0000 O.3     1  UNL1       -0.3405
      9 O           7.6262   -3.4219    0.0000 O.3     1  UNL1       -0.3841
     10 O           8.1449    3.0478    0.0000 O.3     1  UNL1       -0.3841
     11 O           5.8941   -4.4219    0.0000 O.3     1  UNL1       -0.3864
     12 O           9.6770    4.3333    0.0000 O.3     1  UNL1       -0.3864
     13 O           4.1620   -3.4219    0.0000 O.3     1  UNL1       -0.3865
     14 O          11.5564    3.6493    0.0000 O.3     1  UNL1       -0.3865
     15 O           7.1074    3.0478    0.0000 O.3     1  UNL1       -0.3841
     16 O           5.5753    4.3333    0.0000 O.3     1  UNL1       -0.3864
     17 O           9.3582   -3.4219    0.0000 O.3     1  UNL1       -0.3841
     18 O           3.6960    3.6493    0.0000 O.3     1  UNL1       -0.3865
     19 O          11.0903   -4.4219    0.0000 O.3     1  UNL1       -0.3864
     20 O           4.9544   -0.0798    0.0000 O.3     1  UNL1       -0.3924
     21 O          12.8223   -3.4219    0.0000 O.3     1  UNL1       -0.3865
     22 O           4.1620   -0.4219    0.0000 O.3     1  UNL1       -0.3924
     23 O          12.6697    2.3225    0.0000 O.3     1  UNL1       -0.3924
     24 O           2.5826    2.3225    0.0000 O.3     1  UNL1       -0.3924
     25 O          11.0903   -0.4219    0.0000 O.2     1  UNL1       -0.2982
     26 O          13.6883   -1.9219    0.0000 O.3     1  UNL1       -0.3924
     27 C           7.6262   -0.4219    0.0000 C.3     1  UNL1        0.1190
     28 C           8.4922    0.0781    0.0000 C.3     1  UNL1        0.1231
     29 C           6.7601    0.0781    0.0000 C.3     1  UNL1        0.1134
     30 C           9.3582   -0.4219    0.0000 C.3     1  UNL1        0.1450
     31 C           6.7601   -1.9219    0.0000 C.3     1  UNL1        0.1884
     32 C           9.2582    1.7209    0.0000 C.3     1  UNL1        0.1885
     33 C           6.7601   -2.9219    0.0000 C.3     1  UNL1        0.1341
     34 C           9.0846    2.7057    0.0000 C.3     1  UNL1        0.1341
     35 C           5.8941   -3.4219    0.0000 C.3     1  UNL1        0.1141
     36 C           5.9941    1.7209    0.0000 C.3     1  UNL1        0.1884
     37 C           9.8506    3.3485    0.0000 C.3     1  UNL1        0.1141
     38 C           5.0281   -2.9219    0.0000 C.3     1  UNL1        0.1119
     39 C          10.7903    3.0065    0.0000 C.3     1  UNL1        0.1119
     40 C           5.0281   -1.9219    0.0000 C.3     1  UNL1        0.1130
     41 C           6.1677    2.7057    0.0000 C.3     1  UNL1        0.1341
     42 C          10.9640    2.0217    0.0000 C.3     1  UNL1        0.1130
     43 C          10.2242   -1.9219    0.0000 C.3     1  UNL1        0.1888
     44 C           5.4017    3.3485    0.0000 C.3     1  UNL1        0.1141
     45 C          10.2242   -2.9219    0.0000 C.3     1  UNL1        0.1341
     46 C           4.4620    3.0065    0.0000 C.3     1  UNL1        0.1119
     47 C           4.2884    2.0217    0.0000 C.3     1  UNL1        0.1130
     48 C          11.0903   -3.4219    0.0000 C.3     1  UNL1        0.1141
     49 C           5.8941   -0.4219    0.0000 C.3     1  UNL1        0.0730
     50 C          11.9563   -2.9219    0.0000 C.3     1  UNL1        0.1119
     51 C          11.9563   -1.9219    0.0000 C.3     1  UNL1        0.1130
     52 C           4.1620   -1.4219    0.0000 C.3     1  UNL1        0.0730
     53 C          10.2242    0.0781    0.0000 C.2     1  UNL1        0.1516
     54 C          11.9037    1.6797    0.0000 C.3     1  UNL1        0.0730
     55 C           3.3487    1.6798    0.0000 C.3     1  UNL1        0.0730
     56 C          12.8223   -1.4219    0.0000 C.3     1  UNL1        0.0730
     57 H           8.1631   -0.7319    0.0000 H       1  UNL1        0.0651
     58 H           9.0291    0.3881    0.0000 H       1  UNL1        0.0654
     59 H           7.2971    0.3881    0.0000 H       1  UNL1        0.0647
     60 H           8.8213   -0.7319    0.0000 H       1  UNL1        0.0701
     61 H           6.7601   -1.3019    0.0000 H       1  UNL1        0.0938
     62 H           9.3659    1.1104    0.0000 H       1  UNL1        0.0938
     63 H           6.7601   -3.5419    0.0000 H       1  UNL1        0.0671
     64 H           8.6096    2.3072    0.0000 H       1  UNL1        0.0671
     65 H           5.3572   -3.7319    0.0000 H       1  UNL1        0.0648
     66 H           5.8864    1.1104    0.0000 H       1  UNL1        0.0938
     67 H           9.2680    3.5606    0.0000 H       1  UNL1        0.0648
     68 H           4.4911   -2.6119    0.0000 H       1  UNL1        0.0647
     69 H          10.6826    3.6171    0.0000 H       1  UNL1        0.0647
     70 H           5.0281   -1.3019    0.0000 H       1  UNL1        0.0647
     71 H           6.2754    3.3163    0.0000 H       1  UNL1        0.0671
     72 H          11.0716    1.4111    0.0000 H       1  UNL1        0.0647
     73 H          10.2242   -1.3019    0.0000 H       1  UNL1        0.0938
     74 H           4.9267    3.7470    0.0000 H       1  UNL1        0.0648
     75 H          10.2242   -3.5419    0.0000 H       1  UNL1        0.0671
     76 H           5.1101    3.6171    0.0000 H       1  UNL1        0.0647
     77 H           4.1807    1.4111    0.0000 H       1  UNL1        0.0647
     78 H          11.6272   -3.7319    0.0000 H       1  UNL1        0.0648
     79 H           5.5534   -0.9399    0.0000 H       1  UNL1        0.0584
     80 H           6.3196   -0.8728    0.0000 H       1  UNL1        0.0584
     81 H          12.4932   -2.6119    0.0000 H       1  UNL1        0.0647
     82 H          11.9563   -1.3019    0.0000 H       1  UNL1        0.0647
     83 H           3.5515   -1.3142    0.0000 H       1  UNL1        0.0584
     84 H           3.9500   -2.0045    0.0000 H       1  UNL1        0.0584
     85 H          10.3319    0.6887    0.0000 H       1  UNL1        0.1055
     86 H          11.5937    1.1427    0.0000 H       1  UNL1        0.0584
     87 H          12.3786    1.2812    0.0000 H       1  UNL1        0.0584
     88 H           2.8737    1.2812    0.0000 H       1  UNL1        0.0584
     89 H           3.6587    1.1428    0.0000 H       1  UNL1        0.0584
     90 H          13.2208   -0.9469    0.0000 H       1  UNL1        0.0584
     91 H          12.4238   -0.9469    0.0000 H       1  UNL1        0.0584
     92 H           8.1631   -3.1119    0.0000 H       1  UNL1        0.2101
     93 H           8.0372    3.6583    0.0000 H       1  UNL1        0.2101
     94 H           5.3572   -4.7319    0.0000 H       1  UNL1        0.2100
     95 H          10.1519    4.7319    0.0000 H       1  UNL1        0.2100
     96 H           3.6251   -3.1119    0.0000 H       1  UNL1        0.2100
     97 H          11.4487    4.2599    0.0000 H       1  UNL1        0.2100
     98 H           7.2151    3.6583    0.0000 H       1  UNL1        0.2101
     99 H           5.1004    4.7319    0.0000 H       1  UNL1        0.2100
    100 H           9.3582   -4.0419    0.0000 H       1  UNL1        0.2101
    101 H           3.8036    4.2599    0.0000 H       1  UNL1        0.2100
    102 H          11.6272   -4.7319    0.0000 H       1  UNL1        0.2100
    103 H           4.8468    0.5307    0.0000 H       1  UNL1        0.2095
    104 H          12.8223   -4.0419    0.0000 H       1  UNL1        0.2100
    105 H           3.6251   -0.1119    0.0000 H       1  UNL1        0.2095
    106 H          12.5620    2.9330    0.0000 H       1  UNL1        0.2095
    107 H           2.0000    2.1104    0.0000 H       1  UNL1        0.2095
    108 H          14.2253   -1.6119    0.0000 H       1  UNL1        0.2095
@<TRIPOS>BOND
     1    27     1    1
     2    31     1    1
     3    28     2    1
     4    32     2    1
     5    29     3    1
     6    36     3    1
     7     4    31    1
     8     4    40    1
     9    30     5    1
    10    43     5    1
    11     6    32    1
    12     6    42    1
    13     7    36    1
    14     7    47    1
    15     8    43    1
    16     8    51    1
    17    33     9    1
    18     9    92    1
    19    34    10    1
    20    10    93    1
    21    35    11    1
    22    11    94    1
    23    37    12    1
    24    12    95    1
    25    38    13    1
    26    13    96    1
    27    39    14    1
    28    14    97    1
    29    41    15    1
    30    15    98    1
    31    44    16    1
    32    16    99    1
    33    45    17    1
    34    17   100    1
    35    46    18    1
    36    18   101    1
    37    48    19    1
    38    19   102    1
    39    20    49    1
    40    20   103    1
    41    50    21    1
    42    21   104    1
    43    22    52    1
    44    22   105    1
    45    23    54    1
    46    23   106    1
    47    24    55    1
    48    24   107    1
    49    25    53    2
    50    26    56    1
    51    26   108    1
    52    27    28    1
    53    27    29    1
    54    27    57    1
    55    28    30    1
    56    28    58    1
    57    29    49    1
    58    29    59    1
    59    30    53    1
    60    30    60    1
    61    31    33    1
    62    31    61    1
    63    32    34    1
    64    32    62    1
    65    33    35    1
    66    33    63    1
    67    34    37    1
    68    34    64    1
    69    35    38    1
    70    35    65    1
    71    36    41    1
    72    36    66    1
    73    37    39    1
    74    37    67    1
    75    38    40    1
    76    38    68    1
    77    39    42    1
    78    39    69    1
    79    40    52    1
    80    40    70    1
    81    41    44    1
    82    41    71    1
    83    42    54    1
    84    42    72    1
    85    43    45    1
    86    43    73    1
    87    44    46    1
    88    44    74    1
    89    45    48    1
    90    45    75    1
    91    46    47    1
    92    46    76    1
    93    47    55    1
    94    47    77    1
    95    48    50    1
    96    48    78    1
    97    49    79    1
    98    49    80    1
    99    50    51    1
   100    50    81    1
   101    51    56    1
   102    51    82    1
   103    52    83    1
   104    52    84    1
   105    53    85    1
   106    54    86    1
   107    54    87    1
   108    55    88    1
   109    55    89    1
   110    56    90    1
   111    56    91    1
