@<TRIPOS>MOLECULE
IMPHY007923
 56 58 0 0 0
SMALL
GASTEIGER

@<TRIPOS>ATOM
      1 O           3.5878   -2.6113    0.0000 O.3     1  UNL1       -0.4315
      2 O           2.0000   -3.4204    0.0000 O.3     1  UNL1       -0.3445
      3 O           4.8479   -1.3513    0.0000 O.2     1  UNL1       -0.2452
      4 C           4.8198    1.9275    0.0000 C.3     1  UNL1       -0.0220
      5 C           4.8198    2.9275    0.0000 C.3     1  UNL1       -0.0296
      6 C           5.7138    3.4622    0.0000 C.3     1  UNL1       -0.0315
      7 C           3.9538    1.4275    0.0000 C.3     1  UNL1       -0.0110
      8 C           5.7138    1.3928    0.0000 C.3     1  UNL1       -0.0468
      9 C           3.9538    3.4275    0.0000 C.3     1  UNL1       -0.0455
     10 C           6.6198    2.9483    0.0000 C.3     1  UNL1       -0.0476
     11 C           6.6198    1.9067    0.0000 C.3     1  UNL1       -0.0520
     12 C           4.8198    0.9275    0.0000 C.3     1  UNL1       -0.0587
     13 C           3.0878    2.9275    0.0000 C.3     1  UNL1       -0.0314
     14 C           3.0878    1.9275    0.0000 C.2     1  UNL1       -0.0727
     15 C           6.2037    4.3339    0.0000 C.3     1  UNL1       -0.0595
     16 C           5.2038    4.3223    0.0000 C.3     1  UNL1       -0.0595
     17 C           3.9538    0.4275    0.0000 C.3     1  UNL1       -0.0270
     18 C           2.2218    1.4275    0.0000 C.2     1  UNL1       -0.0992
     19 C           3.0878   -0.0725    0.0000 C.2     1  UNL1       -0.0733
     20 C           3.0878   -1.0725    0.0000 C.2     1  UNL1        0.0387
     21 C           2.2788   -1.6603    0.0000 C.3     1  UNL1        0.0417
     22 C           3.8968   -1.6603    0.0000 C.2     1  UNL1        0.3372
     23 C           2.5878   -2.6113    0.0000 C.3     1  UNL1        0.2089
     24 C           2.4067   -4.3339    0.0000 C.3     1  UNL1        0.0405
     25 H           4.8133    3.7775    0.0000 H       1  UNL1        0.0311
     26 H           3.4169    1.1175    0.0000 H       1  UNL1        0.0354
     27 H           5.3092    0.9230    0.0000 H       1  UNL1        0.0271
     28 H           6.1074    0.9138    0.0000 H       1  UNL1        0.0271
     29 H           4.3523    3.9024    0.0000 H       1  UNL1        0.0271
     30 H           3.5553    3.9024    0.0000 H       1  UNL1        0.0271
     31 H           7.2307    2.8422    0.0000 H       1  UNL1        0.0271
     32 H           6.8289    3.5320    0.0000 H       1  UNL1        0.0271
     33 H           6.8289    1.3230    0.0000 H       1  UNL1        0.0266
     34 H           7.2307    2.0128    0.0000 H       1  UNL1        0.0266
     35 H           4.1998    0.9275    0.0000 H       1  UNL1        0.0235
     36 H           4.8198    0.3075    0.0000 H       1  UNL1        0.0235
     37 H           5.4398    0.9275    0.0000 H       1  UNL1        0.0235
     38 H           2.8757    3.5101    0.0000 H       1  UNL1        0.0310
     39 H           2.4772    2.8198    0.0000 H       1  UNL1        0.0310
     40 H           5.7371    4.6385    0.0000 H       1  UNL1        0.0235
     41 H           4.8876    4.8557    0.0000 H       1  UNL1        0.0235
     42 H           4.6705    4.0062    0.0000 H       1  UNL1        0.0235
     43 H           6.7442    4.0301    0.0000 H       1  UNL1        0.0235
     44 H           6.5075    4.8744    0.0000 H       1  UNL1        0.0235
     45 H           5.6632    4.6377    0.0000 H       1  UNL1        0.0235
     46 H           4.1659   -0.1551    0.0000 H       1  UNL1        0.0313
     47 H           4.5644    0.5352    0.0000 H       1  UNL1        0.0313
     48 H           1.6848    1.7375    0.0000 H       1  UNL1        0.0534
     49 H           2.2218    0.8075    0.0000 H       1  UNL1        0.0534
     50 H           2.5508    0.2375    0.0000 H       1  UNL1        0.0577
     51 H           1.9688   -1.1234    0.0000 H       1  UNL1        0.0376
     52 H           1.7124   -1.9125    0.0000 H       1  UNL1        0.0376
     53 H           1.9754   -2.5144    0.0000 H       1  UNL1        0.1060
     54 H           1.8403   -4.5861    0.0000 H       1  UNL1        0.0525
     55 H           2.6589   -4.9003    0.0000 H       1  UNL1        0.0525
     56 H           2.9731   -4.0817    0.0000 H       1  UNL1        0.0525
@<TRIPOS>BOND
     1     1    22    1
     2     1    23    1
     3     2    23    1
     4     2    24    1
     5     3    22    2
     6     4     5    1
     7     4     7    1
     8     4     8    1
     9     4    12    1
    10     5     6    1
    11     5     9    1
    12     5    25    1
    13     6    10    1
    14     6    15    1
    15     6    16    1
    16     7    14    1
    17     7    17    1
    18     7    26    1
    19     8    11    1
    20     8    27    1
    21     8    28    1
    22     9    13    1
    23     9    29    1
    24     9    30    1
    25    10    11    1
    26    10    31    1
    27    10    32    1
    28    11    33    1
    29    11    34    1
    30    12    35    1
    31    12    36    1
    32    12    37    1
    33    13    14    1
    34    13    38    1
    35    13    39    1
    36    14    18    2
    37    15    43    1
    38    15    44    1
    39    15    45    1
    40    16    40    1
    41    16    41    1
    42    16    42    1
    43    17    19    1
    44    17    46    1
    45    17    47    1
    46    18    48    1
    47    18    49    1
    48    19    20    2
    49    19    50    1
    50    20    21    1
    51    20    22    1
    52    21    23    1
    53    21    51    1
    54    21    52    1
    55    23    53    1
    56    24    54    1
    57    24    55    1
    58    24    56    1
