@<TRIPOS>MOLECULE
IMPHY010722
 36 41 0 0 0
SMALL
GASTEIGER

@<TRIPOS>ATOM
      1 O           1.1857   -3.8503    0.0000 O.3     1  UNL1       -0.3116
      2 C           1.1857   -5.1215    0.0000 C.3     1  UNL1        0.2901
      3 O           0.0000   -4.3270    0.0000 O.3     1  UNL1       -0.4226
      4 C           1.3079   -2.5180    0.0000 C.2     1  UNL1        0.3463
      5 C           2.2735   -3.2025    0.0000 C.3     1  UNL1        0.2161
      6 C           3.3858   -3.8503    0.0000 C.3     1  UNL1        0.0291
      7 C           3.3858   -5.1215    0.0000 C.3     1  UNL1       -0.0109
      8 C           2.2735   -5.7571    0.0000 C.3     1  UNL1        0.0615
      9 C           4.4859   -3.2025    0.0000 C.3     1  UNL1       -0.0166
     10 C           5.5982   -3.8503    0.0000 C.3     1  UNL1       -0.0033
     11 C           6.7106   -3.2025    0.0000 C.3     1  UNL1        0.0007
     12 C           6.7106   -1.9313    0.0000 C.3     1  UNL1       -0.0156
     13 C           5.5982   -1.2957    0.0000 C.3     1  UNL1       -0.0039
     14 C           4.4859   -1.9313    0.0000 C.3     1  UNL1       -0.0042
     15 C           4.4859   -5.7571    0.0000 C.3     1  UNL1       -0.0037
     16 C           5.5982   -5.1215    0.0000 C.3     1  UNL1       -0.0006
     17 C           7.8229   -3.8503    0.0000 C.3     1  UNL1        0.0251
     18 C           8.9230   -3.2025    0.0000 C.2     1  UNL1       -0.0347
     19 C           8.9230   -1.9313    0.0000 C.2     1  UNL1       -0.0497
     20 C           7.8229   -1.2957    0.0000 C.3     1  UNL1        0.0115
     21 C           7.8229    0.0000    0.0000 C.3     1  UNL1        0.0038
     22 C          10.0230    0.0000    0.0000 C.3     1  UNL1        0.0043
     23 C          10.0230   -1.2957    0.0000 C.3     1  UNL1        0.0180
     24 O           1.3079   -1.4301    0.0000 O.2     1  UNL1       -0.2473
     25 C           3.3858   -2.5669    0.0000 C.3     1  UNL1        0.0024
     26 C           1.6379   -6.8572    0.0000 C.3     1  UNL1        0.0060
     27 C           2.9214   -6.8572    0.0000 C.3     1  UNL1        0.0060
     28 C           5.6105   -2.5424    0.0000 C.3     1  UNL1       -0.0003
     29 C           6.7106   -4.6082    0.0000 C.3     1  UNL1        0.0000
     30 C           7.8351   -2.6647    0.0000 C.3     1  UNL1        0.0037
     31 C          11.1231   -1.9313    0.0000 C.3     1  UNL1        0.0037
     32 C          11.1231   -3.2025    0.0000 C.3     1  UNL1        0.0003
     33 C          12.2232   -1.2957    0.0000 C.3     1  UNL1        0.0003
     34 H           4.4981   -4.6448    0.0000 H       1  UNL1        0.0319
     35 H           3.3858   -6.3927    0.0000 H       1  UNL1        0.0321
     36 H           6.7106   -0.6356    0.0000 H       1  UNL1        0.0321
@<TRIPOS>BOND
     1     2     1    1
     2     2     8    1
     3     2     3    1
     4     3     4    1
     5     4    24    2
     6     5     1    1
     7     5     4    1
     8     5     6    1
     9     6     9    1
    10     6     7    1
    11     6    25    1
    12     7     8    1
    13     7    15    1
    14     7    35    1
    15     8    27    1
    16     8    26    1
    17     9    10    1
    18     9    14    1
    19     9    34    1
    20    10    16    1
    21    10    11    1
    22    10    28    1
    23    11    12    1
    24    11    17    1
    25    11    29    1
    26    12    13    1
    27    12    20    1
    28    12    36    1
    29    13    14    1
    30    15    16    1
    31    17    18    1
    32    18    19    2
    33    19    23    1
    34    19    20    1
    35    20    21    1
    36    20    30    1
    37    21    22    1
    38    22    23    1
    39    23    31    1
    40    31    32    1
    41    31    33    1
