@<TRIPOS>MOLECULE
IMPHY004955
 42 43 0 0 0
SMALL
GASTEIGER

@<TRIPOS>ATOM
      1 O           5.1350   -0.9050    0.0000 O.3     1  UNL1       -0.3313
      2 O           6.8671   -0.9050    0.0000 O.3     1  UNL1       -0.4572
      3 O           5.1350   -3.9050    0.0000 O.3     1  UNL1       -0.3864
      4 O           3.4030   -2.9050    0.0000 O.3     1  UNL1       -0.3865
      5 O           6.8671   -2.9050    0.0000 O.3     1  UNL1       -0.3829
      6 O           2.5369   -1.4050    0.0000 O.3     1  UNL1       -0.3924
      7 O           8.5991    0.0950    0.0000 O.3     1  UNL1       -0.5033
      8 O           4.2690    3.5950    0.0000 O.3     1  UNL1       -0.3947
      9 C           5.1350   -2.9050    0.0000 C.3     1  UNL1        0.1152
     10 C           4.2690   -2.4050    0.0000 C.3     1  UNL1        0.1120
     11 C           6.0010   -2.4050    0.0000 C.3     1  UNL1        0.1454
     12 C           4.2690   -1.4050    0.0000 C.3     1  UNL1        0.1140
     13 C           6.0010   -1.4050    0.0000 C.3     1  UNL1        0.2310
     14 C           3.4030   -0.9050    0.0000 C.3     1  UNL1        0.0731
     15 C           6.8671    0.0950    0.0000 C.ar    1  UNL1        0.1654
     16 C           6.0010    0.5950    0.0000 C.ar    1  UNL1       -0.0129
     17 C           7.7331    0.5950    0.0000 C.ar    1  UNL1        0.1586
     18 C           6.0010    1.5950    0.0000 C.ar    1  UNL1       -0.0415
     19 C           5.1350    2.0950    0.0000 C.3     1  UNL1       -0.0043
     20 C           7.7331    1.5950    0.0000 C.ar    1  UNL1       -0.0163
     21 C           6.8671    2.0950    0.0000 C.ar    1  UNL1       -0.0548
     22 C           5.1350    3.0950    0.0000 C.3     1  UNL1        0.0482
     23 H           5.6720   -3.2150    0.0000 H       1  UNL1        0.0648
     24 H           4.2690   -3.0250    0.0000 H       1  UNL1        0.0647
     25 H           6.5380   -2.0950    0.0000 H       1  UNL1        0.0683
     26 H           4.2690   -0.7850    0.0000 H       1  UNL1        0.0647
     27 H           6.0010   -0.7850    0.0000 H       1  UNL1        0.1084
     28 H           3.8015   -0.4301    0.0000 H       1  UNL1        0.0584
     29 H           3.0044   -0.4301    0.0000 H       1  UNL1        0.0584
     30 H           4.5981   -4.2150    0.0000 H       1  UNL1        0.2100
     31 H           3.4030   -3.5250    0.0000 H       1  UNL1        0.2100
     32 H           6.8671   -3.5250    0.0000 H       1  UNL1        0.2102
     33 H           2.0000   -1.0950    0.0000 H       1  UNL1        0.2095
     34 H           5.4641    0.2850    0.0000 H       1  UNL1        0.0658
     35 H           4.5244    2.2027    0.0000 H       1  UNL1        0.0335
     36 H           4.9230    1.5124    0.0000 H       1  UNL1        0.0335
     37 H           8.2700    1.9050    0.0000 H       1  UNL1        0.0655
     38 H           6.8671    2.7150    0.0000 H       1  UNL1        0.0621
     39 H           5.7456    2.9873    0.0000 H       1  UNL1        0.0560
     40 H           5.3471    3.6776    0.0000 H       1  UNL1        0.0560
     41 H           9.1360    0.4050    0.0000 H       1  UNL1        0.2923
     42 H           4.2690    4.2150    0.0000 H       1  UNL1        0.2094
@<TRIPOS>BOND
     1     1    12    1
     2     1    13    1
     3    13     2    1
     4     2    15    1
     5     9     3    1
     6     3    30    1
     7    10     4    1
     8     4    31    1
     9    11     5    1
    10     5    32    1
    11     6    14    1
    12     6    33    1
    13     7    17    1
    14     7    41    1
    15     8    22    1
    16     8    42    1
    17     9    10    1
    18     9    11    1
    19     9    23    1
    20    10    12    1
    21    10    24    1
    22    11    13    1
    23    11    25    1
    24    12    14    1
    25    12    26    1
    26    13    27    1
    27    14    28    1
    28    14    29    1
    29    15    16   ar
    30    15    17   ar
    31    16    18   ar
    32    16    34    1
    33    17    20   ar
    34    18    19    1
    35    18    21   ar
    36    19    22    1
    37    19    35    1
    38    19    36    1
    39    20    21   ar
    40    20    37    1
    41    21    38    1
    42    22    39    1
    43    22    40    1
