@<TRIPOS>MOLECULE
IMPHY000895
 58 62 0 0 0
SMALL
GASTEIGER

@<TRIPOS>ATOM
      1 O           2.9785   -0.7475    0.0000 O.3     1  UNL1       -0.3417
      2 O           3.8155   -1.2232    0.0000 O.3     1  UNL1       -0.3850
      3 O           5.4476    1.9196    0.0000 O.3     1  UNL1       -0.3876
      4 O           2.8836   -2.5213    0.0000 O.3     1  UNL1       -0.3639
      5 O           2.8836    3.3605    0.0000 O.3     1  UNL1       -0.3914
      6 O           7.0534   -3.7979    0.0000 O.3     1  UNL1       -0.3947
      7 C           4.5816   -0.5804    0.0000 C.3     1  UNL1        0.1064
      8 C           4.3723   -1.5522    0.0000 C.3     1  UNL1        0.0562
      9 C           5.4476   -0.0804    0.0000 C.3     1  UNL1       -0.0005
     10 C           5.4476    0.9196    0.0000 C.3     1  UNL1        0.0076
     11 C           3.7155   -0.0804    0.0000 C.3     1  UNL1        0.0973
     12 C           4.5816    1.4196    0.0000 C.3     1  UNL1        0.0799
     13 C           3.3836   -1.6553    0.0000 C.3     1  UNL1        0.1766
     14 C           3.7155    0.9196    0.0000 C.3     1  UNL1        0.0225
     15 C           5.3573   -1.7673    0.0000 C.3     1  UNL1       -0.0230
     16 C           5.1589   -0.9636    0.0000 C.3     1  UNL1        0.0102
     17 C           5.9520   -0.9533    0.0000 C.3     1  UNL1       -0.0430
     18 C           2.9785    1.5867    0.0000 C.3     1  UNL1       -0.0098
     19 C           4.3723    2.3914    0.0000 C.3     1  UNL1        0.0033
     20 C           5.0402   -2.2965    0.0000 C.3     1  UNL1       -0.0516
     21 C           6.3794    1.2826    0.0000 C.3     1  UNL1       -0.0564
     22 C           3.3836    2.4945    0.0000 C.3     1  UNL1        0.0609
     23 C           5.7118   -2.7024    0.0000 C.3     1  UNL1       -0.0171
     24 C           2.0000    1.3805    0.0000 C.3     1  UNL1       -0.0596
     25 C           6.6988   -2.8629    0.0000 C.3     1  UNL1        0.0470
     26 C           5.0793   -3.4769    0.0000 C.3     1  UNL1       -0.0601
     27 H           6.1837    0.3446    0.0000 H       1  UNL1        0.0336
     28 H           2.8784    0.0672    0.0000 H       1  UNL1        0.0630
     29 H           2.8784    0.7720    0.0000 H       1  UNL1        0.0358
     30 H           5.9717   -1.8503    0.0000 H       1  UNL1        0.0312
     31 H           5.2802   -1.5717    0.0000 H       1  UNL1        0.0323
     32 H           5.7787   -0.9497    0.0000 H       1  UNL1        0.0323
     33 H           6.3973   -1.3847    0.0000 H       1  UNL1        0.0272
     34 H           6.4408   -0.5719    0.0000 H       1  UNL1        0.0272
     35 H           2.5890    2.0690    0.0000 H       1  UNL1        0.0327
     36 H           4.9888    2.4575    0.0000 H       1  UNL1        0.0318
     37 H           4.3714    3.0114    0.0000 H       1  UNL1        0.0318
     38 H           4.5787   -2.7106    0.0000 H       1  UNL1        0.0238
     39 H           5.4542   -2.7580    0.0000 H       1  UNL1        0.0238
     40 H           5.5016   -1.8824    0.0000 H       1  UNL1        0.0238
     41 H           6.6044    0.7049    0.0000 H       1  UNL1        0.0236
     42 H           6.9571    1.5077    0.0000 H       1  UNL1        0.0236
     43 H           6.1543    1.8603    0.0000 H       1  UNL1        0.0236
     44 H           3.7211    3.0146    0.0000 H       1  UNL1        0.0597
     45 H           5.0998   -2.6029    0.0000 H       1  UNL1        0.0323
     46 H           3.9232   -1.8338    0.0000 H       1  UNL1        0.2103
     47 H           5.4476    2.5396    0.0000 H       1  UNL1        0.2102
     48 H           2.2636   -2.5213    0.0000 H       1  UNL1        0.2128
     49 H           1.8721    1.9871    0.0000 H       1  UNL1        0.0233
     50 H           1.3933    1.2526    0.0000 H       1  UNL1        0.0233
     51 H           2.1279    0.7738    0.0000 H       1  UNL1        0.0233
     52 H           7.3079   -2.7471    0.0000 H       1  UNL1        0.0560
     53 H           6.6906   -2.2429    0.0000 H       1  UNL1        0.0560
     54 H           4.5991   -3.0848    0.0000 H       1  UNL1        0.0233
     55 H           4.6871   -3.9572    0.0000 H       1  UNL1        0.0233
     56 H           5.5595   -3.8691    0.0000 H       1  UNL1        0.0233
     57 H           3.1936    3.8974    0.0000 H       1  UNL1        0.2098
     58 H           7.6653   -3.8974    0.0000 H       1  UNL1        0.2094
@<TRIPOS>BOND
     1     1    11    1
     2     1    13    1
     3     7     2    1
     4     2    46    1
     5    12     3    1
     6     3    47    1
     7     4    13    1
     8     4    48    1
     9    22     5    1
    10     5    57    1
    11     6    25    1
    12     6    58    1
    13     7     8    1
    14     7     9    1
    15     7    11    1
    16     8    13    1
    17     8    15    1
    18     8    20    1
    19     9    10    1
    20     9    17    1
    21     9    27    1
    22    10    12    1
    23    10    16    1
    24    10    21    1
    25    11    14    1
    26    11    28    1
    27    12    14    1
    28    12    19    1
    29    13    16    1
    30    14    18    1
    31    14    29    1
    32    15    17    1
    33    15    23    1
    34    15    30    1
    35    16    31    1
    36    16    32    1
    37    17    33    1
    38    17    34    1
    39    18    22    1
    40    18    24    1
    41    18    35    1
    42    19    22    1
    43    19    36    1
    44    19    37    1
    45    20    38    1
    46    20    39    1
    47    20    40    1
    48    21    41    1
    49    21    42    1
    50    21    43    1
    51    22    44    1
    52    23    25    1
    53    23    26    1
    54    23    45    1
    55    24    49    1
    56    24    50    1
    57    24    51    1
    58    25    52    1
    59    25    53    1
    60    26    54    1
    61    26    55    1
    62    26    56    1
