@<TRIPOS>MOLECULE
IMPHY001331
 57 61 0 0 0
SMALL
GASTEIGER

@<TRIPOS>ATOM
      1 O           3.4685   -2.3754    0.0000 O.3     1  UNL1       -0.4612
      2 O           6.6555   -1.3399    0.0000 O.3     1  UNL1       -0.4646
      3 O           7.0156    0.3543    0.0000 O.2     1  UNL1       -0.2453
      4 O           4.7556   -3.5344    0.0000 O.2     1  UNL1       -0.2512
      5 N           2.6254    0.4021    0.0000 N.3     1  UNL1       -0.2975
      6 N           5.7049    1.4027    0.0000 N.pl3   1  UNL1       -0.3164
      7 C           3.5397    0.2078    0.0000 C.3     1  UNL1        0.0346
      8 C           4.1652    0.9024    0.0000 C.3     1  UNL1        0.0531
      9 C           3.8286   -0.6812    0.0000 C.3     1  UNL1        0.0285
     10 C           3.7801    1.9380    0.0000 C.3     1  UNL1       -0.0238
     11 C           3.2031   -1.3758    0.0000 C.3     1  UNL1       -0.0411
     12 C           4.7429   -0.8755    0.0000 C.3     1  UNL1       -0.0089
     13 C           2.3366    1.2911    0.0000 C.3     1  UNL1        0.0004
     14 C           5.0795    0.7081    0.0000 C.2     1  UNL1        0.0304
     15 C           4.1376   -1.6322    0.0000 C.3     1  UNL1        0.1076
     16 C           2.0000   -0.2925    0.0000 C.3     1  UNL1       -0.0007
     17 C           4.5018    2.4860    0.0000 C.ar    1  UNL1       -0.0130
     18 C           2.2888   -1.1815    0.0000 C.3     1  UNL1       -0.0395
     19 C           5.3683   -0.1809    0.0000 C.2     1  UNL1        0.0551
     20 C           5.4161    2.2917    0.0000 C.ar    1  UNL1        0.0353
     21 C           5.1157   -1.8402    0.0000 C.3     1  UNL1       -0.0271
     22 C           4.2129    3.3750    0.0000 C.ar    1  UNL1       -0.0559
     23 C           6.3465   -0.3888    0.0000 C.2     1  UNL1        0.3364
     24 C           6.0415    2.9863    0.0000 C.ar    1  UNL1       -0.0403
     25 C           4.8384    4.0696    0.0000 C.ar    1  UNL1       -0.0614
     26 C           5.7527    3.8752    0.0000 C.ar    1  UNL1       -0.0600
     27 C           3.7775   -3.3264    0.0000 C.2     1  UNL1        0.3042
     28 C           3.1084   -4.0696    0.0000 C.3     1  UNL1        0.0332
     29 C           7.6336   -1.5478    0.0000 C.3     1  UNL1        0.0820
     30 H           3.2771    1.0162    0.0000 H       1  UNL1        0.0482
     31 H           4.3564    2.1667    0.0000 H       1  UNL1        0.0290
     32 H           3.5389    2.5092    0.0000 H       1  UNL1        0.0290
     33 H           2.9709   -1.9507    0.0000 H       1  UNL1        0.0273
     34 H           3.7289   -1.7044    0.0000 H       1  UNL1        0.0273
     35 H           4.5106   -1.4504    0.0000 H       1  UNL1        0.0323
     36 H           5.2687   -1.2041    0.0000 H       1  UNL1        0.0323
     37 H           2.1034    1.8656    0.0000 H       1  UNL1        0.0427
     38 H           1.7542    1.0785    0.0000 H       1  UNL1        0.0427
     39 H           4.3292   -2.2219    0.0000 H       1  UNL1        0.0737
     40 H           1.6183    0.1961    0.0000 H       1  UNL1        0.0427
     41 H           1.4526   -0.5836    0.0000 H       1  UNL1        0.0427
     42 H           1.6749   -1.2678    0.0000 H       1  UNL1        0.0278
     43 H           2.2672   -1.8011    0.0000 H       1  UNL1        0.0278
     44 H           6.3114    1.2738    0.0000 H       1  UNL1        0.1519
     45 H           4.9868   -2.4466    0.0000 H       1  UNL1        0.0265
     46 H           5.7222   -1.9691    0.0000 H       1  UNL1        0.0265
     47 H           5.2446   -1.2337    0.0000 H       1  UNL1        0.0265
     48 H           3.6065    3.5039    0.0000 H       1  UNL1        0.0621
     49 H           6.6480    2.8574    0.0000 H       1  UNL1        0.0636
     50 H           4.6468    4.6592    0.0000 H       1  UNL1        0.0618
     51 H           6.1676    4.3360    0.0000 H       1  UNL1        0.0618
     52 H           2.6476   -3.6547    0.0000 H       1  UNL1        0.0342
     53 H           2.6935   -4.5303    0.0000 H       1  UNL1        0.0342
     54 H           3.5691   -4.4844    0.0000 H       1  UNL1        0.0342
     55 H           7.5047   -2.1542    0.0000 H       1  UNL1        0.0661
     56 H           8.2401   -1.6767    0.0000 H       1  UNL1        0.0661
     57 H           7.7625   -0.9413    0.0000 H       1  UNL1        0.0661
@<TRIPOS>BOND
     1     1    15    1
     2     1    27    1
     3     2    23    1
     4     2    29    1
     5     3    23    2
     6     4    27    2
     7     5     7    1
     8     5    13    1
     9     5    16    1
    10     6    14    1
    11     6    20    1
    12     6    44    1
    13     7     8    1
    14     7     9    1
    15     7    30    1
    16     8    10    1
    17     8    14    1
    18     8    17    1
    19     9    11    1
    20     9    12    1
    21     9    15    1
    22    10    13    1
    23    10    31    1
    24    10    32    1
    25    11    18    1
    26    11    33    1
    27    11    34    1
    28    12    19    1
    29    12    35    1
    30    12    36    1
    31    13    37    1
    32    13    38    1
    33    14    19    2
    34    15    21    1
    35    15    39    1
    36    16    18    1
    37    16    40    1
    38    16    41    1
    39    17    20   ar
    40    17    22   ar
    41    18    42    1
    42    18    43    1
    43    19    23    1
    44    20    24   ar
    45    21    45    1
    46    21    46    1
    47    21    47    1
    48    22    25   ar
    49    22    48    1
    50    24    26   ar
    51    24    49    1
    52    25    26   ar
    53    25    50    1
    54    26    51    1
    55    27    28    1
    56    28    52    1
    57    28    53    1
    58    28    54    1
    59    29    55    1
    60    29    56    1
    61    29    57    1
