@<TRIPOS>MOLECULE
IMPHY000756
 29 32 0 0 0
SMALL
GASTEIGER

@<TRIPOS>ATOM
      1 O           2.8583   -0.3844    0.0000 O.3     1  UNL1       -0.4929
      2 O           7.9663   -0.1519    0.0000 O.2     1  UNL1       -0.2673
      3 N           6.2062   -0.3401    0.0000 N.ar    1  UNL1       -0.2741
      4 N           4.5864   -2.4110    0.0000 N.ar    1  UNL1       -0.2498
      5 C           5.3972   -0.9279    0.0000 C.ar    1  UNL1        0.0866
      6 C           4.5881   -0.3401    0.0000 C.ar    1  UNL1        0.0532
      7 C           4.8972    0.6110    0.0000 C.ar    1  UNL1        0.0117
      8 C           5.8972    0.6110    0.0000 C.ar    1  UNL1        0.0580
      9 C           5.4900   -1.9653    0.0000 C.ar    1  UNL1        0.0887
     10 C           3.7318   -0.8710    0.0000 C.ar    1  UNL1        0.1479
     11 C           7.1642   -0.7490    0.0000 C.ar    1  UNL1        0.2563
     12 C           4.3625    1.5049    0.0000 C.ar    1  UNL1       -0.0519
     13 C           6.4318    1.5049    0.0000 C.ar    1  UNL1       -0.0371
     14 C           6.4383   -2.3963    0.0000 C.ar    1  UNL1       -0.0291
     15 C           7.2810   -1.7841    0.0000 C.ar    1  UNL1        0.0054
     16 C           3.7310   -1.8786    0.0000 C.ar    1  UNL1        0.0706
     17 C           4.8763    2.4110    0.0000 C.ar    1  UNL1       -0.0611
     18 C           5.9180    2.4110    0.0000 C.ar    1  UNL1       -0.0598
     19 C           2.0000   -0.8976    0.0000 C.3     1  UNL1        0.0789
     20 H           3.7425    1.4978    0.0000 H       1  UNL1        0.0624
     21 H           7.0518    1.4978    0.0000 H       1  UNL1        0.0638
     22 H           6.5008   -3.0132    0.0000 H       1  UNL1        0.0641
     23 H           7.8484   -2.0341    0.0000 H       1  UNL1        0.0672
     24 H           3.1889   -2.1794    0.0000 H       1  UNL1        0.0867
     25 H           4.5643    2.9467    0.0000 H       1  UNL1        0.0618
     26 H           6.2300    2.9467    0.0000 H       1  UNL1        0.0618
     27 H           1.6818   -0.3654    0.0000 H       1  UNL1        0.0660
     28 H           1.4679   -1.2158    0.0000 H       1  UNL1        0.0660
     29 H           2.3182   -1.4297    0.0000 H       1  UNL1        0.0660
@<TRIPOS>BOND
     1     1    10    1
     2     1    19    1
     3     2    11    2
     4     3     5   ar
     5     3     8   ar
     6     3    11   ar
     7     4     9   ar
     8     4    16   ar
     9     5     6   ar
    10     5     9   ar
    11     6     7   ar
    12     6    10   ar
    13     7     8   ar
    14     7    12   ar
    15     8    13   ar
    16     9    14   ar
    17    10    16   ar
    18    11    15   ar
    19    12    17   ar
    20    12    20    1
    21    13    18   ar
    22    13    21    1
    23    14    15   ar
    24    14    22    1
    25    15    23    1
    26    16    24    1
    27    17    18   ar
    28    17    25    1
    29    18    26    1
    30    19    27    1
    31    19    28    1
    32    19    29    1
