@<TRIPOS>MOLECULE
IMPHY010021
 36 35 0 0 0
SMALL
GASTEIGER

@<TRIPOS>ATOM
      1 O           3.0000    0.4992    0.0000 O.2     1  UNL1       -0.2876
      2 C           3.0000   -1.5008    0.0000 C.3     1  UNL1       -0.0063
      3 C           3.0000   -2.5008    0.0000 C.3     1  UNL1       -0.0435
      4 C           3.8660   -1.0008    0.0000 C.2     1  UNL1        0.0039
      5 C           3.8660   -3.0008    0.0000 C.3     1  UNL1       -0.0486
      6 C           4.7320   -2.5008    0.0000 C.3     1  UNL1       -0.0313
      7 C           4.7320   -1.5008    0.0000 C.2     1  UNL1       -0.0653
      8 C           2.0000   -1.5008    0.0000 C.3     1  UNL1       -0.0557
      9 C           2.5000   -0.6348    0.0000 C.3     1  UNL1       -0.0557
     10 C           3.8660   -0.0008    0.0000 C.2     1  UNL1        0.1820
     11 C           5.5981   -1.0008    0.0000 C.3     1  UNL1       -0.0431
     12 C           4.7320    0.4992    0.0000 C.2     1  UNL1       -0.0217
     13 C           4.7320    1.4992    0.0000 C.2     1  UNL1       -0.0951
     14 C           4.7320    2.4992    0.0000 C.3     2  UNL2       -0.0776
     15 H           2.3894   -2.3931    0.0000 H       1  UNL1        0.0274
     16 H           2.7880   -3.0834    0.0000 H       1  UNL1        0.0274
     17 H           3.4675   -3.4757    0.0000 H       1  UNL1        0.0269
     18 H           4.2646   -3.4757    0.0000 H       1  UNL1        0.0269
     19 H           4.9441   -3.0834    0.0000 H       1  UNL1        0.0310
     20 H           5.3426   -2.3931    0.0000 H       1  UNL1        0.0310
     21 H           2.0000   -0.8808    0.0000 H       1  UNL1        0.0238
     22 H           1.3800   -1.5008    0.0000 H       1  UNL1        0.0238
     23 H           2.0000   -2.1208    0.0000 H       1  UNL1        0.0238
     24 H           3.0369   -0.3248    0.0000 H       1  UNL1        0.0238
     25 H           2.1900   -0.0978    0.0000 H       1  UNL1        0.0238
     26 H           1.9631   -0.9448    0.0000 H       1  UNL1        0.0238
     27 H           5.9081   -1.5377    0.0000 H       1  UNL1        0.0275
     28 H           6.1350   -0.6908    0.0000 H       1  UNL1        0.0275
     29 H           5.2881   -0.4639    0.0000 H       1  UNL1        0.0275
     30 H           5.2690    0.1892    0.0000 H       1  UNL1        0.0650
     31 H           5.3520    1.4992    0.0000 H       1  UNL1        0.0536
     32 H           4.1120    1.4992    0.0000 H       1  UNL1        0.0536
     33 H           5.0965    3.0008    0.0000 H       1  UNL1        0.0194
     34 H           4.3676    3.0008    0.0000 H       1  UNL1        0.0194
     35 H           5.3217    2.3076    0.0000 H       1  UNL1        0.0194
     36 H           4.1424    2.3076    0.0000 H       1  UNL1        0.0194
@<TRIPOS>BOND
     1     1    10    2
     2     2     3    1
     3     2     4    1
     4     2     8    1
     5     2     9    1
     6     3     5    1
     7     3    15    1
     8     3    16    1
     9     4     7    2
    10     4    10    1
    11     5     6    1
    12     5    17    1
    13     5    18    1
    14     6     7    1
    15     6    19    1
    16     6    20    1
    17     7    11    1
    18     8    21    1
    19     8    22    1
    20     8    23    1
    21     9    24    1
    22     9    25    1
    23     9    26    1
    24    10    12    1
    25    11    27    1
    26    11    28    1
    27    11    29    1
    28    12    13    2
    29    12    30    1
    30    13    31    1
    31    13    32    1
    32    14    33    1
    33    14    34    1
    34    14    35    1
    35    14    36    1
