@<TRIPOS>MOLECULE
IMPHY004097
 55 54 0 0 0
SMALL
GASTEIGER

@<TRIPOS>ATOM
      1 O           2.0000    0.7500    0.0000 O.co2   1  UNL1       -0.5498
      2 O           2.8660   -0.7500    0.0000 O.co2   1  UNL1       -0.5498
      3 C          10.6603    0.7500    0.0000 C.3     1  UNL1       -0.0531
      4 C           9.7942    0.2500    0.0000 C.3     1  UNL1       -0.0531
      5 C          11.5263    0.2500    0.0000 C.3     1  UNL1       -0.0531
      6 C           8.9282    0.7500    0.0000 C.3     1  UNL1       -0.0531
      7 C          12.3923    0.7500    0.0000 C.3     1  UNL1       -0.0531
      8 C           8.0622    0.2500    0.0000 C.3     1  UNL1       -0.0531
      9 C          13.2583    0.2500    0.0000 C.3     1  UNL1       -0.0531
     10 C           7.1962    0.7500    0.0000 C.3     1  UNL1       -0.0531
     11 C          14.1244    0.7500    0.0000 C.3     1  UNL1       -0.0531
     12 C           6.3301    0.2500    0.0000 C.3     1  UNL1       -0.0530
     13 C          14.9904    0.2500    0.0000 C.3     1  UNL1       -0.0531
     14 C           5.4641    0.7500    0.0000 C.3     1  UNL1       -0.0527
     15 C          15.8564    0.7500    0.0000 C.3     1  UNL1       -0.0533
     16 C           4.5981    0.2500    0.0000 C.3     1  UNL1       -0.0480
     17 C          16.7224    0.2500    0.0000 C.3     1  UNL1       -0.0559
     18 C           3.7320    0.7500    0.0000 C.3     1  UNL1       -0.0132
     19 C          17.5885    0.7500    0.0000 C.3     1  UNL1       -0.0653
     20 C           2.8660    0.2500    0.0000 C.2     1  UNL1        0.0417
     21 H          11.0588    1.2250    0.0000 H       1  UNL1        0.0265
     22 H          10.2617    1.2250    0.0000 H       1  UNL1        0.0265
     23 H           9.3957   -0.2249    0.0000 H       1  UNL1        0.0265
     24 H          10.1928   -0.2249    0.0000 H       1  UNL1        0.0265
     25 H          11.1278   -0.2249    0.0000 H       1  UNL1        0.0265
     26 H          11.9248   -0.2249    0.0000 H       1  UNL1        0.0265
     27 H           9.3267    1.2250    0.0000 H       1  UNL1        0.0265
     28 H           8.5297    1.2250    0.0000 H       1  UNL1        0.0265
     29 H          12.7908    1.2250    0.0000 H       1  UNL1        0.0265
     30 H          11.9938    1.2250    0.0000 H       1  UNL1        0.0265
     31 H           7.6636   -0.2249    0.0000 H       1  UNL1        0.0265
     32 H           8.4607   -0.2249    0.0000 H       1  UNL1        0.0265
     33 H          12.8598   -0.2249    0.0000 H       1  UNL1        0.0265
     34 H          13.6569   -0.2249    0.0000 H       1  UNL1        0.0265
     35 H           7.5947    1.2250    0.0000 H       1  UNL1        0.0265
     36 H           6.7976    1.2250    0.0000 H       1  UNL1        0.0265
     37 H          14.5229    1.2250    0.0000 H       1  UNL1        0.0265
     38 H          13.7258    1.2250    0.0000 H       1  UNL1        0.0265
     39 H           5.9316   -0.2249    0.0000 H       1  UNL1        0.0265
     40 H           6.7287   -0.2249    0.0000 H       1  UNL1        0.0265
     41 H          14.5919   -0.2249    0.0000 H       1  UNL1        0.0265
     42 H          15.3889   -0.2249    0.0000 H       1  UNL1        0.0265
     43 H           5.8626    1.2250    0.0000 H       1  UNL1        0.0265
     44 H           5.0656    1.2250    0.0000 H       1  UNL1        0.0265
     45 H          16.2549    1.2250    0.0000 H       1  UNL1        0.0265
     46 H          15.4579    1.2250    0.0000 H       1  UNL1        0.0265
     47 H           4.1996   -0.2249    0.0000 H       1  UNL1        0.0269
     48 H           4.9966   -0.2249    0.0000 H       1  UNL1        0.0269
     49 H          16.3239   -0.2249    0.0000 H       1  UNL1        0.0263
     50 H          17.1210   -0.2249    0.0000 H       1  UNL1        0.0263
     51 H           4.1306    1.2250    0.0000 H       1  UNL1        0.0325
     52 H           3.3335    1.2250    0.0000 H       1  UNL1        0.0325
     53 H          17.8985    0.2131    0.0000 H       1  UNL1        0.0230
     54 H          18.1254    1.0600    0.0000 H       1  UNL1        0.0230
     55 H          17.2785    1.2869    0.0000 H       1  UNL1        0.0230
@<TRIPOS>UNITY_ATOM_ATTR
1 1
charge -1
@<TRIPOS>BOND
     1     1    20   ar
     2     2    20   ar
     3     3     4    1
     4     3     5    1
     5     3    21    1
     6     3    22    1
     7     4     6    1
     8     4    23    1
     9     4    24    1
    10     5     7    1
    11     5    25    1
    12     5    26    1
    13     6     8    1
    14     6    27    1
    15     6    28    1
    16     7     9    1
    17     7    29    1
    18     7    30    1
    19     8    10    1
    20     8    31    1
    21     8    32    1
    22     9    11    1
    23     9    33    1
    24     9    34    1
    25    10    12    1
    26    10    35    1
    27    10    36    1
    28    11    13    1
    29    11    37    1
    30    11    38    1
    31    12    14    1
    32    12    39    1
    33    12    40    1
    34    13    15    1
    35    13    41    1
    36    13    42    1
    37    14    16    1
    38    14    43    1
    39    14    44    1
    40    15    17    1
    41    15    45    1
    42    15    46    1
    43    16    18    1
    44    16    47    1
    45    16    48    1
    46    17    19    1
    47    17    49    1
    48    17    50    1
    49    18    20    1
    50    18    51    1
    51    18    52    1
    52    19    53    1
    53    19    54    1
    54    19    55    1
