@<TRIPOS>MOLECULE
IMPHY002882
 142 150 0 0 0
SMALL
GASTEIGER

@<TRIPOS>ATOM
      1 O           9.5314    6.0666    0.0000 O.3     1  UNL1       -0.3476
      2 O           8.6874    7.6114    0.0000 O.3     1  UNL1       -0.3409
      3 O           5.8914    6.5759    0.0000 O.3     1  UNL1       -0.3883
      4 O           7.7331   -1.3258    0.0000 O.3     1  UNL1       -0.3440
      5 O           6.0010   -1.3259    0.0000 O.3     1  UNL1       -0.3451
      6 O           7.7331   -3.3259    0.0000 O.3     1  UNL1       -0.4537
      7 O           6.0010   -4.3258    0.0000 O.3     1  UNL1       -0.3389
      8 O           4.2690   -3.3259    0.0000 O.3     1  UNL1       -0.3868
      9 O           4.2690   -4.3258    0.0000 O.3     1  UNL1       -0.3405
     10 O           8.5991   -1.8258    0.0000 O.2     1  UNL1       -0.2512
     11 O           6.0010   -6.3258    0.0000 O.3     1  UNL1       -0.3378
     12 O           4.2690   -7.3258    0.0000 O.3     1  UNL1       -0.3864
     13 O           2.5369   -6.3258    0.0000 O.3     1  UNL1       -0.3865
     14 O           5.1350   -7.8258    0.0000 O.3     1  UNL1       -0.3461
     15 O           2.5369   -3.3259    0.0000 O.3     1  UNL1       -0.3924
     16 O           7.7331   -7.3259    0.0000 O.3     1  UNL1       -0.3841
     17 O           7.7331   -9.3259    0.0000 O.3     1  UNL1       -0.3864
     18 O           6.0010  -10.3259    0.0000 O.3     1  UNL1       -0.3869
     19 C           8.6596    4.5700    0.0000 C.3     1  UNL1        0.0081
     20 C           8.6717    3.5284    0.0000 C.3     1  UNL1       -0.0206
     21 C           7.7955    5.0733    0.0000 C.3     1  UNL1       -0.0223
     22 C           7.7716    3.0041    0.0000 C.3     1  UNL1       -0.0294
     23 C           7.7994    6.0733    0.0000 C.3     1  UNL1        0.0452
     24 C           8.6673    6.5700    0.0000 C.3     1  UNL1        0.1770
     25 C           8.2974    5.5714    0.0000 C.3     1  UNL1        0.0103
     26 C           7.7590    1.9192    0.0000 C.3     1  UNL1       -0.0252
     27 C           9.5276    5.0666    0.0000 C.3     1  UNL1        0.0575
     28 C           6.8836    4.5700    0.0000 C.3     1  UNL1       -0.0488
     29 C           9.6216    3.0041    0.0000 C.3     1  UNL1       -0.0465
     30 C           8.6966    1.3731    0.0000 C.3     1  UNL1       -0.0278
     31 C           6.8715    3.5284    0.0000 C.3     1  UNL1       -0.0489
     32 C           6.8913    6.5836    0.0000 C.3     1  UNL1        0.0739
     33 C           9.6341    1.9192    0.0000 C.3     1  UNL1       -0.0486
     34 C           9.5358    4.0317    0.0000 C.3     1  UNL1       -0.0587
     35 C           8.7096    0.2430    0.0000 C.3     1  UNL1       -0.0052
     36 C           6.7696    1.3731    0.0000 C.3     1  UNL1       -0.0447
     37 C           6.8950    2.4225    0.0000 C.3     1  UNL1       -0.0590
     38 C           6.8873    7.6253    0.0000 C.3     1  UNL1        0.0063
     39 C           7.7331   -0.3259    0.0000 C.3     1  UNL1        0.0672
     40 C           6.7565    0.2430    0.0000 C.3     1  UNL1       -0.0255
     41 C           7.7914    8.1426    0.0000 C.3     1  UNL1        0.0829
     42 C           6.3980    5.7138    0.0000 C.3     1  UNL1       -0.0355
     43 C           9.7096    0.2507    0.0000 C.3     1  UNL1       -0.0572
     44 C           9.2163   -0.6192    0.0000 C.3     1  UNL1       -0.0572
     45 C           7.7991    9.1426    0.0000 C.2     1  UNL1       -0.0567
     46 C           6.8671   -1.8259    0.0000 C.3     1  UNL1        0.1992
     47 C           8.6690    9.6359    0.0000 C.2     1  UNL1       -0.0772
     48 C           6.8671   -2.8259    0.0000 C.3     1  UNL1        0.1819
     49 C           8.6767   10.6359    0.0000 C.3     1  UNL1       -0.0440
     50 C           9.5311    9.1292    0.0000 C.3     1  UNL1       -0.0440
     51 C           6.0010   -3.3259    0.0000 C.3     1  UNL1        0.1313
     52 C           5.1350   -1.8259    0.0000 C.3     1  UNL1        0.0793
     53 C           5.1350   -2.8259    0.0000 C.3     1  UNL1        0.1084
     54 C           8.5991   -2.8259    0.0000 C.2     1  UNL1        0.3044
     55 C           5.1350   -4.8258    0.0000 C.3     1  UNL1        0.1889
     56 C           5.1350   -5.8258    0.0000 C.3     1  UNL1        0.1406
     57 C           9.4651   -3.3259    0.0000 C.3     1  UNL1        0.0332
     58 C           4.2690   -6.3258    0.0000 C.3     1  UNL1        0.1144
     59 C           3.4030   -4.8258    0.0000 C.3     1  UNL1        0.1130
     60 C           3.4030   -5.8258    0.0000 C.3     1  UNL1        0.1119
     61 C           2.5369   -4.3258    0.0000 C.3     1  UNL1        0.0730
     62 C           6.0010   -7.3258    0.0000 C.3     1  UNL1        0.1881
     63 C           6.8671   -7.8258    0.0000 C.3     1  UNL1        0.1341
     64 C           6.8671   -8.8259    0.0000 C.3     1  UNL1        0.1137
     65 C           5.1350   -8.8259    0.0000 C.3     1  UNL1        0.0792
     66 C           6.0010   -9.3259    0.0000 C.3     1  UNL1        0.1069
     67 H           6.9590    5.2241    0.0000 H       1  UNL1        0.0312
     68 H           7.0322    2.5848    0.0000 H       1  UNL1        0.0312
     69 H           6.9617    5.9290    0.0000 H       1  UNL1        0.0384
     70 H           7.8018    5.9438    0.0000 H       1  UNL1        0.0323
     71 H           7.7989    5.2028    0.0000 H       1  UNL1        0.0323
     72 H           9.7374    4.4832    0.0000 H       1  UNL1        0.0567
     73 H          10.1386    5.1719    0.0000 H       1  UNL1        0.0567
     74 H           6.6813    5.1560    0.0000 H       1  UNL1        0.0268
     75 H           6.2715    4.4710    0.0000 H       1  UNL1        0.0268
     76 H          10.2336    2.9051    0.0000 H       1  UNL1        0.0271
     77 H           9.8239    3.5902    0.0000 H       1  UNL1        0.0271
     78 H           9.4360    0.9538    0.0000 H       1  UNL1        0.0312
     79 H           6.2619    3.6416    0.0000 H       1  UNL1        0.0268
     80 H           6.6557    2.9472    0.0000 H       1  UNL1        0.0268
     81 H           9.8499    1.3380    0.0000 H       1  UNL1        0.0268
     82 H          10.2437    2.0324    0.0000 H       1  UNL1        0.0268
     83 H           9.8478    3.4960    0.0000 H       1  UNL1        0.0235
     84 H          10.0715    4.3438    0.0000 H       1  UNL1        0.0235
     85 H           9.2237    4.5675    0.0000 H       1  UNL1        0.0235
     86 H           6.5673    1.9592    0.0000 H       1  UNL1        0.0271
     87 H           6.1575    1.2741    0.0000 H       1  UNL1        0.0271
     88 H           7.2070    2.9583    0.0000 H       1  UNL1        0.0235
     89 H           6.3592    2.7346    0.0000 H       1  UNL1        0.0235
     90 H           6.5829    1.8868    0.0000 H       1  UNL1        0.0235
     91 H           6.6760    8.2082    0.0000 H       1  UNL1        0.0321
     92 H           6.2769    7.5168    0.0000 H       1  UNL1        0.0321
     93 H           7.1956   -0.6348    0.0000 H       1  UNL1        0.0602
     94 H           6.1469    0.3561    0.0000 H       1  UNL1        0.0290
     95 H           6.5407   -0.3382    0.0000 H       1  UNL1        0.0290
     96 H           8.3313    8.4474    0.0000 H       1  UNL1        0.0642
     97 H           5.8587    6.0197    0.0000 H       1  UNL1        0.0257
     98 H           6.0922    5.1745    0.0000 H       1  UNL1        0.0257
     99 H           6.9373    5.4079    0.0000 H       1  UNL1        0.0257
    100 H           9.7144   -0.3693    0.0000 H       1  UNL1        0.0236
    101 H          10.3296    0.2555    0.0000 H       1  UNL1        0.0236
    102 H           9.7048    0.8707    0.0000 H       1  UNL1        0.0236
    103 H           8.6818   -0.9333    0.0000 H       1  UNL1        0.0236
    104 H           9.5304   -1.1537    0.0000 H       1  UNL1        0.0236
    105 H           9.7508   -0.3050    0.0000 H       1  UNL1        0.0236
    106 H           5.5772    7.1105    0.0000 H       1  UNL1        0.2102
    107 H           7.2646    9.4567    0.0000 H       1  UNL1        0.0597
    108 H           7.4040   -2.1358    0.0000 H       1  UNL1        0.0949
    109 H           6.8671   -3.4458    0.0000 H       1  UNL1        0.0813
    110 H           9.2170    8.5947    0.0000 H       1  UNL1        0.0274
    111 H          10.0656    8.8151    0.0000 H       1  UNL1        0.0274
    112 H           9.2967   10.6311    0.0000 H       1  UNL1        0.0274
    113 H           9.8452    9.6638    0.0000 H       1  UNL1        0.0274
    114 H           8.6814   11.2558    0.0000 H       1  UNL1        0.0274
    115 H           8.0567   10.6406    0.0000 H       1  UNL1        0.0274
    116 H           5.4641   -3.6358    0.0000 H       1  UNL1        0.0663
    117 H           4.9230   -1.2432    0.0000 H       1  UNL1        0.0587
    118 H           4.5244   -1.9335    0.0000 H       1  UNL1        0.0587
    119 H           4.5981   -2.5159    0.0000 H       1  UNL1        0.0643
    120 H           3.7320   -3.0159    0.0000 H       1  UNL1        0.2100
    121 H           5.1350   -4.2058    0.0000 H       1  UNL1        0.0938
    122 H           5.1350   -6.4458    0.0000 H       1  UNL1        0.0675
    123 H           9.1551   -3.8628    0.0000 H       1  UNL1        0.0342
    124 H          10.0021   -3.6358    0.0000 H       1  UNL1        0.0342
    125 H           9.7751   -2.7889    0.0000 H       1  UNL1        0.0342
    126 H           3.7320   -6.6358    0.0000 H       1  UNL1        0.0648
    127 H           3.4030   -4.2058    0.0000 H       1  UNL1        0.0647
    128 H           2.8660   -5.5158    0.0000 H       1  UNL1        0.0647
    129 H           1.9264   -4.2182    0.0000 H       1  UNL1        0.0584
    130 H           2.3249   -4.9085    0.0000 H       1  UNL1        0.0584
    131 H           6.5380   -7.0158    0.0000 H       1  UNL1        0.0937
    132 H           3.7320   -7.6359    0.0000 H       1  UNL1        0.2100
    133 H           2.0000   -6.0158    0.0000 H       1  UNL1        0.2100
    134 H           7.4040   -8.1358    0.0000 H       1  UNL1        0.0671
    135 H           2.0000   -3.0159    0.0000 H       1  UNL1        0.2095
    136 H           6.8671   -9.4459    0.0000 H       1  UNL1        0.0647
    137 H           4.5244   -8.7182    0.0000 H       1  UNL1        0.0587
    138 H           4.9230   -9.4085    0.0000 H       1  UNL1        0.0587
    139 H           5.4641   -9.6359    0.0000 H       1  UNL1        0.0643
    140 H           8.2700   -7.6359    0.0000 H       1  UNL1        0.2101
    141 H           7.7331   -9.9459    0.0000 H       1  UNL1        0.2100
    142 H           5.4641  -10.6359    0.0000 H       1  UNL1        0.2100
@<TRIPOS>BOND
     1     1    24    1
     2     1    27    1
     3    24     2    1
     4     2    41    1
     5    32     3    1
     6     3   106    1
     7    39     4    1
     8    46     4    1
     9     5    46    1
    10     5    52    1
    11    48     6    1
    12     6    54    1
    13    51     7    1
    14    55     7    1
    15    53     8    1
    16     8   120    1
    17     9    55    1
    18     9    59    1
    19    10    54    2
    20    56    11    1
    21    62    11    1
    22    58    12    1
    23    12   132    1
    24    60    13    1
    25    13   133    1
    26    14    62    1
    27    14    65    1
    28    15    61    1
    29    15   135    1
    30    63    16    1
    31    16   140    1
    32    64    17    1
    33    17   141    1
    34    66    18    1
    35    18   142    1
    36    19    20    1
    37    19    21    1
    38    19    25    1
    39    19    27    1
    40    20    22    1
    41    20    29    1
    42    20    34    1
    43    21    23    1
    44    21    28    1
    45    21    67    1
    46    22    26    1
    47    22    31    1
    48    22    68    1
    49    23    24    1
    50    23    32    1
    51    23    69    1
    52    24    25    1
    53    25    70    1
    54    25    71    1
    55    26    30    1
    56    26    36    1
    57    26    37    1
    58    27    72    1
    59    27    73    1
    60    28    31    1
    61    28    74    1
    62    28    75    1
    63    29    33    1
    64    29    76    1
    65    29    77    1
    66    30    33    1
    67    30    35    1
    68    30    78    1
    69    31    79    1
    70    31    80    1
    71    32    38    1
    72    32    42    1
    73    33    81    1
    74    33    82    1
    75    34    83    1
    76    34    84    1
    77    34    85    1
    78    35    39    1
    79    35    43    1
    80    35    44    1
    81    36    40    1
    82    36    86    1
    83    36    87    1
    84    37    88    1
    85    37    89    1
    86    37    90    1
    87    38    41    1
    88    38    91    1
    89    38    92    1
    90    39    40    1
    91    39    93    1
    92    40    94    1
    93    40    95    1
    94    41    45    1
    95    41    96    1
    96    42    97    1
    97    42    98    1
    98    42    99    1
    99    43   100    1
   100    43   101    1
   101    43   102    1
   102    44   103    1
   103    44   104    1
   104    44   105    1
   105    45    47    2
   106    45   107    1
   107    46    48    1
   108    46   108    1
   109    47    49    1
   110    47    50    1
   111    48    51    1
   112    48   109    1
   113    49   112    1
   114    49   114    1
   115    49   115    1
   116    50   110    1
   117    50   111    1
   118    50   113    1
   119    51    53    1
   120    51   116    1
   121    52    53    1
   122    52   117    1
   123    52   118    1
   124    53   119    1
   125    54    57    1
   126    55    56    1
   127    55   121    1
   128    56    58    1
   129    56   122    1
   130    57   123    1
   131    57   124    1
   132    57   125    1
   133    58    60    1
   134    58   126    1
   135    59    60    1
   136    59    61    1
   137    59   127    1
   138    60   128    1
   139    61   129    1
   140    61   130    1
   141    62    63    1
   142    62   131    1
   143    63    64    1
   144    63   134    1
   145    64    66    1
   146    64   136    1
   147    65    66    1
   148    65   137    1
   149    65   138    1
   150    66   139    1
