@<TRIPOS>MOLECULE
IMPHY002931
 31 33 0 0 0
SMALL
GASTEIGER

@<TRIPOS>ATOM
      1 O           4.3198    1.2810    0.0000 O.3     1  UNL1       -0.4907
      2 O           5.1804    1.7778    0.0000 O.3     1  UNL1       -0.5061
      3 O           2.5381    0.2705    0.0000 O.3     1  UNL1       -0.5009
      4 O           2.5381   -1.7778    0.0000 O.3     1  UNL1       -0.5032
      5 C           5.2022   -0.2536    0.0000 C.ar    1  UNL1        0.0388
      6 C           6.0682    0.2464    0.0000 C.ar    1  UNL1        0.0349
      7 C           5.2022   -1.2536    0.0000 C.ar    1  UNL1       -0.0100
      8 C           6.9343   -0.2536    0.0000 C.ar    1  UNL1       -0.0137
      9 C           4.3083    0.2810    0.0000 C.ar    1  UNL1        0.1733
     10 C           6.0682   -1.7536    0.0000 C.ar    1  UNL1       -0.0532
     11 C           6.9343   -1.2536    0.0000 C.ar    1  UNL1       -0.0533
     12 C           6.0522    1.2879    0.0000 C.ar    1  UNL1        0.1252
     13 C           4.3083   -1.7883    0.0000 C.ar    1  UNL1       -0.0086
     14 C           3.4022   -0.2328    0.0000 C.ar    1  UNL1        0.2014
     15 C           7.8443    0.2532    0.0000 C.ar    1  UNL1       -0.0538
     16 C           3.4022   -1.2744    0.0000 C.ar    1  UNL1        0.1626
     17 C           6.9502    1.8156    0.0000 C.ar    1  UNL1       -0.0195
     18 C           7.8523    1.2948    0.0000 C.ar    1  UNL1       -0.0577
     19 C           3.4597    1.7909    0.0000 C.3     1  UNL1        0.0790
     20 H           6.0682   -2.3736    0.0000 H       1  UNL1        0.0624
     21 H           7.4712   -1.5636    0.0000 H       1  UNL1        0.0624
     22 H           4.3154   -2.4083    0.0000 H       1  UNL1        0.0661
     23 H           8.3776   -0.0630    0.0000 H       1  UNL1        0.0624
     24 H           6.9478    2.4356    0.0000 H       1  UNL1        0.0654
     25 H           8.3904    1.6027    0.0000 H       1  UNL1        0.0619
     26 H           5.1733    2.3978    0.0000 H       1  UNL1        0.2922
     27 H           2.0000   -0.0374    0.0000 H       1  UNL1        0.2924
     28 H           3.7758    2.3242    0.0000 H       1  UNL1        0.0660
     29 H           2.9263    2.1071    0.0000 H       1  UNL1        0.0660
     30 H           3.1435    1.2576    0.0000 H       1  UNL1        0.0660
     31 H           2.5405   -2.3978    0.0000 H       1  UNL1        0.2923
@<TRIPOS>BOND
     1     1     9    1
     2     1    19    1
     3     2    12    1
     4     2    26    1
     5     3    14    1
     6     3    27    1
     7     4    16    1
     8     4    31    1
     9     5     6   ar
    10     5     7   ar
    11     5     9   ar
    12     6     8   ar
    13     6    12   ar
    14     7    10   ar
    15     7    13   ar
    16     8    11   ar
    17     8    15   ar
    18     9    14   ar
    19    10    11   ar
    20    10    20    1
    21    11    21    1
    22    12    17   ar
    23    13    16   ar
    24    13    22    1
    25    14    16   ar
    26    15    18   ar
    27    15    23    1
    28    17    18   ar
    29    17    24    1
    30    18    25    1
    31    19    28    1
    32    19    29    1
    33    19    30    1
