@<TRIPOS>MOLECULE
IMPHY010890
 81 85 0 0 0
SMALL
GASTEIGER

@<TRIPOS>ATOM
      1 O           4.1616    1.4218    0.0000 O.3     1  UNL1       -0.3448
      2 O           2.4962    2.5029    0.0000 O.3     1  UNL1       -0.3480
      3 O          10.5689    6.8010    0.0000 O.3     1  UNL1       -0.3918
      4 O           6.4190   10.9505    0.0000 O.co2   2  UNL2       -0.5501
      5 O           5.5529    9.4505    0.0000 O.co2   2  UNL2       -0.5501
      6 C           5.2290    3.6566    0.0000 C.3     1  UNL1       -0.0233
      7 C           6.0950    3.1566    0.0000 C.3     1  UNL1       -0.0298
      8 C           4.4920    2.9895    0.0000 C.3     1  UNL1       -0.0015
      9 C           6.9610    3.6566    0.0000 C.3     1  UNL1       -0.0343
     10 C           6.9610    4.6566    0.0000 C.3     1  UNL1       -0.0323
     11 C           4.8971    2.0817    0.0000 C.3     1  UNL1        0.0660
     12 C           7.8550    5.1912    0.0000 C.3     1  UNL1       -0.0260
     13 C           5.8858    2.1848    0.0000 C.3     1  UNL1       -0.0226
     14 C           5.2290    4.6566    0.0000 C.3     1  UNL1       -0.0467
     15 C           6.0950    5.1566    0.0000 C.3     1  UNL1       -0.0489
     16 C           3.5095    2.8828    0.0000 C.3     1  UNL1        0.0160
     17 C           8.7610    4.6774    0.0000 C.3     1  UNL1       -0.0330
     18 C           7.8550    3.1219    0.0000 C.3     1  UNL1       -0.0494
     19 C           3.3058    1.9158    0.0000 C.3     1  UNL1        0.1732
     20 C           8.7610    3.6358    0.0000 C.3     1  UNL1       -0.0494
     21 C           4.3630    4.1566    0.0000 C.3     1  UNL1       -0.0590
     22 C           7.8299    6.2759    0.0000 C.3     1  UNL1       -0.0448
     23 C           9.7048    5.2126    0.0000 C.3     1  UNL1       -0.0235
     24 C           6.9851    5.6846    0.0000 C.3     1  UNL1       -0.0590
     25 C           2.8385    3.6242    0.0000 C.3     1  UNL1       -0.0572
     26 C           8.7610    6.8329    0.0000 C.3     1  UNL1       -0.0263
     27 C           3.2021    0.9212    0.0000 C.3     1  UNL1        0.0020
     28 C           9.7048    6.2976    0.0000 C.3     1  UNL1        0.0555
     29 C           2.2889    0.5137    0.0000 C.3     1  UNL1       -0.0435
     30 C           1.5830    2.0954    0.0000 C.3     1  UNL1        0.0535
     31 C           1.4794    1.1008    0.0000 C.3     1  UNL1       -0.0201
     32 C           0.5662    0.6933    0.0000 C.3     1  UNL1       -0.0603
     33 C           4.6869   10.9505    0.0000 C.3     2  UNL2       -0.0252
     34 C           5.5529   10.4505    0.0000 C.2     2  UNL2        0.0387
     35 H           6.7820    2.6561    0.0000 H       1  UNL1        0.0310
     36 H           4.1439    3.7650    0.0000 H       1  UNL1        0.0335
     37 H           6.9545    2.8066    0.0000 H       1  UNL1        0.0306
     38 H           7.7004    4.2373    0.0000 H       1  UNL1        0.0309
     39 H           5.2418    1.3047    0.0000 H       1  UNL1        0.0600
     40 H           5.8849    1.5648    0.0000 H       1  UNL1        0.0293
     41 H           6.5023    2.1187    0.0000 H       1  UNL1        0.0293
     42 H           5.0169    5.2392    0.0000 H       1  UNL1        0.0271
     43 H           4.6184    4.5489    0.0000 H       1  UNL1        0.0271
     44 H           6.4935    5.6315    0.0000 H       1  UNL1        0.0268
     45 H           5.6965    5.6315    0.0000 H       1  UNL1        0.0268
     46 H           2.9110    2.7210    0.0000 H       1  UNL1        0.0354
     47 H           9.4955    4.2496    0.0000 H       1  UNL1        0.0307
     48 H           7.4504    2.6521    0.0000 H       1  UNL1        0.0268
     49 H           8.2486    2.6429    0.0000 H       1  UNL1        0.0268
     50 H           8.9701    3.0521    0.0000 H       1  UNL1        0.0268
     51 H           9.3719    3.7418    0.0000 H       1  UNL1        0.0268
     52 H           4.6730    4.6935    0.0000 H       1  UNL1        0.0235
     53 H           3.8260    4.4666    0.0000 H       1  UNL1        0.0235
     54 H           4.0530    3.6196    0.0000 H       1  UNL1        0.0235
     55 H           7.6074    6.8546    0.0000 H       1  UNL1        0.0271
     56 H           7.2216    6.1558    0.0000 H       1  UNL1        0.0271
     57 H           9.9139    4.6289    0.0000 H       1  UNL1        0.0293
     58 H          10.3157    5.3187    0.0000 H       1  UNL1        0.0293
     59 H           7.2910    6.2238    0.0000 H       1  UNL1        0.0235
     60 H           6.4458    5.9904    0.0000 H       1  UNL1        0.0235
     61 H           6.6793    5.1452    0.0000 H       1  UNL1        0.0235
     62 H           3.2982    4.0403    0.0000 H       1  UNL1        0.0234
     63 H           2.4224    4.0839    0.0000 H       1  UNL1        0.0234
     64 H           2.3788    3.2082    0.0000 H       1  UNL1        0.0234
     65 H           9.1547    7.3119    0.0000 H       1  UNL1        0.0290
     66 H           8.3564    7.3026    0.0000 H       1  UNL1        0.0290
     67 H           3.3526    0.3198    0.0000 H       1  UNL1        0.0317
     68 H           3.8205    0.9650    0.0000 H       1  UNL1        0.0317
     69 H           9.7012    6.9176    0.0000 H       1  UNL1        0.0593
     70 H           1.8433    0.0826    0.0000 H       1  UNL1        0.0270
     71 H           2.6360    0.0000    0.0000 H       1  UNL1        0.0270
     72 H           1.4325    2.6968    0.0000 H       1  UNL1        0.0563
     73 H           0.9646    2.0516    0.0000 H       1  UNL1        0.0563
     74 H           0.9775    1.4648    0.0000 H       1  UNL1        0.0320
     75 H          10.5665    7.4210    0.0000 H       1  UNL1        0.2098
     76 H           0.3135    1.2594    0.0000 H       1  UNL1        0.0233
     77 H           0.0000    0.4406    0.0000 H       1  UNL1        0.0233
     78 H           0.8188    0.1271    0.0000 H       1  UNL1        0.0233
     79 H           4.9969   11.4875    0.0000 H       2  UNL2        0.0289
     80 H           4.1500   11.2605    0.0000 H       2  UNL2        0.0289
     81 H           4.3769   10.4136    0.0000 H       2  UNL2        0.0289
@<TRIPOS>UNITY_ATOM_ATTR
4 1
charge -1
@<TRIPOS>BOND
     1     1    11    1
     2    19     1    1
     3     2    19    1
     4     2    30    1
     5    28     3    1
     6     3    75    1
     7     4    34   ar
     8     5    34   ar
     9     6     7    1
    10     6     8    1
    11     6    14    1
    12     6    21    1
    13     7     9    1
    14     7    13    1
    15     7    35    1
    16     8    11    1
    17     8    16    1
    18     8    36    1
    19     9    10    1
    20     9    18    1
    21     9    37    1
    22    10    12    1
    23    10    15    1
    24    10    38    1
    25    11    13    1
    26    11    39    1
    27    12    17    1
    28    12    22    1
    29    12    24    1
    30    13    40    1
    31    13    41    1
    32    14    15    1
    33    14    42    1
    34    14    43    1
    35    15    44    1
    36    15    45    1
    37    16    19    1
    38    16    25    1
    39    16    46    1
    40    17    20    1
    41    17    23    1
    42    17    47    1
    43    18    20    1
    44    18    48    1
    45    18    49    1
    46    19    27    1
    47    20    50    1
    48    20    51    1
    49    21    52    1
    50    21    53    1
    51    21    54    1
    52    22    26    1
    53    22    55    1
    54    22    56    1
    55    23    28    1
    56    23    57    1
    57    23    58    1
    58    24    59    1
    59    24    60    1
    60    24    61    1
    61    25    62    1
    62    25    63    1
    63    25    64    1
    64    26    28    1
    65    26    65    1
    66    26    66    1
    67    27    29    1
    68    27    67    1
    69    27    68    1
    70    28    69    1
    71    29    31    1
    72    29    70    1
    73    29    71    1
    74    30    31    1
    75    30    72    1
    76    30    73    1
    77    31    32    1
    78    31    74    1
    79    32    76    1
    80    32    77    1
    81    32    78    1
    82    33    34    1
    83    33    79    1
    84    33    80    1
    85    33    81    1
