@<TRIPOS>MOLECULE
IMPHY015612
 18 17 0 0 0
SMALL
GASTEIGER

@<TRIPOS>ATOM
      1 O           5.4641    0.7500    0.0000 O.3     1  UNL1       -0.4341
      2 O           3.7320    0.7500    0.0000 O.3     1  UNL1       -0.4341
      3 O           4.5981   -0.7500    0.0000 O.2     1  UNL1       -0.2029
      4 C           6.3301    0.2500    0.0000 C.3     1  UNL1        0.0931
      5 C           2.8660    0.2500    0.0000 C.3     1  UNL1        0.0931
      6 C           7.1962    0.7500    0.0000 C.3     1  UNL1       -0.0305
      7 C           2.0000    0.7500    0.0000 C.3     1  UNL1       -0.0305
      8 C           4.5981    0.2500    0.0000 C.2     1  UNL1        0.5102
      9 H           5.9316   -0.2249    0.0000 H       1  UNL1        0.0696
     10 H           6.7287   -0.2249    0.0000 H       1  UNL1        0.0696
     11 H           2.4675   -0.2249    0.0000 H       1  UNL1        0.0696
     12 H           3.2646   -0.2249    0.0000 H       1  UNL1        0.0696
     13 H           7.5062    0.2131    0.0000 H       1  UNL1        0.0262
     14 H           7.7331    1.0600    0.0000 H       1  UNL1        0.0262
     15 H           6.8862    1.2869    0.0000 H       1  UNL1        0.0262
     16 H           2.3100    1.2869    0.0000 H       1  UNL1        0.0262
     17 H           1.4631    1.0600    0.0000 H       1  UNL1        0.0262
     18 H           1.6900    0.2131    0.0000 H       1  UNL1        0.0262
@<TRIPOS>BOND
     1     1     4    1
     2     1     8    1
     3     2     5    1
     4     2     8    1
     5     3     8    2
     6     4     6    1
     7     4     9    1
     8     4    10    1
     9     5     7    1
    10     5    11    1
    11     5    12    1
    12     6    13    1
    13     6    14    1
    14     6    15    1
    15     7    16    1
    16     7    17    1
    17     7    18    1
