@<TRIPOS>MOLECULE
IMPHY008295
 40 42 0 0 0
SMALL
GASTEIGER

@<TRIPOS>ATOM
      1 O           5.5301   -0.0121    0.0000 O.2     1  UNL1       -0.4545
      2 O           2.0000    2.0121    0.0000 O.3     1  UNL1       -0.4914
      3 O           9.8602    0.4879    0.0000 O.3     1  UNL1       -0.4950
      4 O           8.1282   -2.5121    0.0000 O.3     1  UNL1       -0.4950
      5 O           5.5301    2.9879    0.0000 O.2     1  UNL1       -0.2870
      6 O           2.0000   -0.0362    0.0000 O.3     1  UNL1       -0.5032
      7 C           4.6641    1.4879    0.0000 C.ar    1  UNL1        0.0677
      8 C           6.3961    0.4879    0.0000 C.ar    1  UNL1        0.1394
      9 C           4.6641    0.4879    0.0000 C.ar    1  UNL1        0.1429
     10 C           7.2622   -0.0121    0.0000 C.ar    1  UNL1        0.0243
     11 C           5.5301    1.9879    0.0000 C.ar    1  UNL1        0.1932
     12 C           6.3961    1.4879    0.0000 C.ar    1  UNL1        0.0287
     13 C           3.7702    2.0226    0.0000 C.ar    1  UNL1       -0.0020
     14 C           3.7702   -0.0467    0.0000 C.ar    1  UNL1        0.0265
     15 C           7.2622   -1.0121    0.0000 C.ar    1  UNL1       -0.0091
     16 C           8.1282    0.4879    0.0000 C.ar    1  UNL1       -0.0091
     17 C           2.8641    1.5087    0.0000 C.ar    1  UNL1        0.1622
     18 C           2.8641    0.4671    0.0000 C.ar    1  UNL1        0.1620
     19 C           8.9942   -0.0121    0.0000 C.ar    1  UNL1        0.1242
     20 C           8.1282   -1.5121    0.0000 C.ar    1  UNL1        0.1242
     21 C           8.9942   -1.0121    0.0000 C.ar    1  UNL1        0.0218
     22 C           2.0038    3.0121    0.0000 C.3     1  UNL1        0.0790
     23 C          10.7263   -0.0121    0.0000 C.3     1  UNL1        0.0788
     24 C           8.9942   -3.0121    0.0000 C.3     1  UNL1        0.0788
     25 H           6.9331    1.7979    0.0000 H       1  UNL1        0.0693
     26 H           3.7773    2.6426    0.0000 H       1  UNL1        0.0663
     27 H           3.7773   -0.6667    0.0000 H       1  UNL1        0.0692
     28 H           6.7252   -1.3221    0.0000 H       1  UNL1        0.0661
     29 H           8.1282    1.1079    0.0000 H       1  UNL1        0.0661
     30 H           9.5312   -1.3221    0.0000 H       1  UNL1        0.0691
     31 H           2.0024   -0.6562    0.0000 H       1  UNL1        0.2923
     32 H           2.6238    3.0097    0.0000 H       1  UNL1        0.0660
     33 H           2.0062    3.6321    0.0000 H       1  UNL1        0.0660
     34 H           1.3839    3.0145    0.0000 H       1  UNL1        0.0660
     35 H          10.4163   -0.5490    0.0000 H       1  UNL1        0.0660
     36 H          11.2632   -0.3221    0.0000 H       1  UNL1        0.0660
     37 H          11.0363    0.5249    0.0000 H       1  UNL1        0.0660
     38 H           8.6842   -3.5490    0.0000 H       1  UNL1        0.0660
     39 H           9.5312   -3.3221    0.0000 H       1  UNL1        0.0660
     40 H           9.3042   -2.4751    0.0000 H       1  UNL1        0.0660
@<TRIPOS>BOND
     1     1     8   ar
     2     1     9   ar
     3     2    17    1
     4     2    22    1
     5     3    19    1
     6     3    23    1
     7     4    20    1
     8     4    24    1
     9     5    11    2
    10     6    18    1
    11     6    31    1
    12     7     9   ar
    13     7    11   ar
    14     7    13   ar
    15     8    10    1
    16     8    12   ar
    17     9    14   ar
    18    10    15   ar
    19    10    16   ar
    20    11    12   ar
    21    12    25    1
    22    13    17   ar
    23    13    26    1
    24    14    18   ar
    25    14    27    1
    26    15    20   ar
    27    15    28    1
    28    16    19   ar
    29    16    29    1
    30    17    18   ar
    31    19    21   ar
    32    20    21   ar
    33    21    30    1
    34    22    32    1
    35    22    33    1
    36    22    34    1
    37    23    35    1
    38    23    36    1
    39    23    37    1
    40    24    38    1
    41    24    39    1
    42    24    40    1
