@<TRIPOS>MOLECULE
IMPHY001776
 41 43 0 0 0
SMALL
GASTEIGER

@<TRIPOS>ATOM
      1 O           6.3580   -0.9226    0.0000 O.2     1  UNL1       -0.4507
      2 O           4.5981   -1.8879    0.0000 O.3     1  UNL1       -0.4884
      3 O           2.8660    1.1121    0.0000 O.3     1  UNL1       -0.4884
      4 O           4.5981    2.1121    0.0000 O.3     1  UNL1       -0.5027
      5 O           2.8660   -0.8879    0.0000 O.3     1  UNL1       -0.5007
      6 O           6.3465    2.1467    0.0000 O.2     1  UNL1       -0.2869
      7 O          10.7205   -2.4221    0.0000 O.3     1  UNL1       -0.4951
      8 C           5.4641    0.6121    0.0000 C.ar    1  UNL1        0.1128
      9 C           5.4641   -0.3879    0.0000 C.ar    1  UNL1        0.1881
     10 C           4.5981   -0.8879    0.0000 C.ar    1  UNL1        0.2086
     11 C           7.2641   -0.4087    0.0000 C.ar    1  UNL1        0.1394
     12 C           4.5981    1.1121    0.0000 C.ar    1  UNL1        0.1770
     13 C           6.3580    1.1467    0.0000 C.ar    1  UNL1        0.1969
     14 C           3.7320    0.6121    0.0000 C.ar    1  UNL1        0.2078
     15 C           3.7320   -0.3879    0.0000 C.ar    1  UNL1        0.2085
     16 C           7.2641    0.6329    0.0000 C.ar    1  UNL1        0.0288
     17 C           8.1282   -0.9121    0.0000 C.ar    1  UNL1        0.0176
     18 C           8.1244   -1.9121    0.0000 C.ar    1  UNL1       -0.0476
     19 C           8.9962   -0.4154    0.0000 C.ar    1  UNL1       -0.0476
     20 C           8.9884   -2.4154    0.0000 C.ar    1  UNL1       -0.0193
     21 C           9.8602   -0.9188    0.0000 C.ar    1  UNL1       -0.0193
     22 C           9.8564   -1.9187    0.0000 C.ar    1  UNL1        0.1201
     23 C           3.7320   -2.3879    0.0000 C.3     1  UNL1        0.0791
     24 C           2.0000    0.6121    0.0000 C.3     1  UNL1        0.0791
     25 C          11.5884   -1.9254    0.0000 C.3     1  UNL1        0.0788
     26 H           7.7998    0.9450    0.0000 H       1  UNL1        0.0693
     27 H           7.5862   -2.2200    0.0000 H       1  UNL1        0.0626
     28 H           8.9985    0.2046    0.0000 H       1  UNL1        0.0626
     29 H           8.9860   -3.0354    0.0000 H       1  UNL1        0.0654
     30 H          10.3984   -0.6108    0.0000 H       1  UNL1        0.0654
     31 H           4.0611    2.4221    0.0000 H       1  UNL1        0.2923
     32 H           2.3291   -0.5779    0.0000 H       1  UNL1        0.2924
     33 H           3.4220   -1.8510    0.0000 H       1  UNL1        0.0660
     34 H           3.1951   -2.6979    0.0000 H       1  UNL1        0.0660
     35 H           4.0420   -2.9249    0.0000 H       1  UNL1        0.0660
     36 H           1.6900    1.1490    0.0000 H       1  UNL1        0.0660
     37 H           1.4631    0.3021    0.0000 H       1  UNL1        0.0660
     38 H           2.3100    0.0751    0.0000 H       1  UNL1        0.0660
     39 H          11.8964   -2.4636    0.0000 H       1  UNL1        0.0660
     40 H          12.1266   -1.6175    0.0000 H       1  UNL1        0.0660
     41 H          11.2805   -1.3873    0.0000 H       1  UNL1        0.0660
@<TRIPOS>BOND
     1     1     9   ar
     2     1    11   ar
     3     2    10    1
     4     2    23    1
     5     3    14    1
     6     3    24    1
     7     4    12    1
     8     4    31    1
     9     5    15    1
    10     5    32    1
    11     6    13    2
    12     7    22    1
    13     7    25    1
    14     8     9   ar
    15     8    12   ar
    16     8    13   ar
    17     9    10   ar
    18    10    15   ar
    19    11    16   ar
    20    11    17    1
    21    12    14   ar
    22    13    16   ar
    23    14    15   ar
    24    16    26    1
    25    17    18   ar
    26    17    19   ar
    27    18    20   ar
    28    18    27    1
    29    19    21   ar
    30    19    28    1
    31    20    22   ar
    32    20    29    1
    33    21    22   ar
    34    21    30    1
    35    23    33    1
    36    23    34    1
    37    23    35    1
    38    24    36    1
    39    24    37    1
    40    24    38    1
    41    25    39    1
    42    25    40    1
    43    25    41    1
