@<TRIPOS>MOLECULE
IMPHY016795
 41 40 0 0 0
SMALL
GASTEIGER

@<TRIPOS>ATOM
      1 O           6.3301    0.2500    0.0000 O.3     1  UNL1       -0.4567
      2 O           8.9282   -0.2500    0.0000 O.3     1  UNL1       -0.4567
      3 O           7.1962   -1.2500    0.0000 O.2     1  UNL1       -0.2376
      4 O           8.0622    1.2500    0.0000 O.2     1  UNL1       -0.2376
      5 C           2.8660    0.2500    0.0000 C.3     1  UNL1       -0.0466
      6 C           3.7320   -0.2500    0.0000 C.3     1  UNL1       -0.0476
      7 C           4.5981    0.2500    0.0000 C.3     1  UNL1       -0.0183
      8 C           2.0000   -0.2500    0.0000 C.3     1  UNL1       -0.0627
      9 C           2.8660    1.2500    0.0000 C.3     1  UNL1       -0.0627
     10 C           5.4641   -0.2500    0.0000 C.3     1  UNL1        0.0930
     11 C          11.5263    0.2500    0.0000 C.3     1  UNL1       -0.0502
     12 C          10.6603   -0.2500    0.0000 C.3     1  UNL1       -0.0185
     13 C          12.3923   -0.2500    0.0000 C.3     1  UNL1       -0.0558
     14 C           9.7942    0.2500    0.0000 C.3     1  UNL1        0.0930
     15 C          13.2583    0.2500    0.0000 C.3     1  UNL1       -0.0653
     16 C           7.1962   -0.2500    0.0000 C.2     1  UNL1        0.4173
     17 C           8.0622    0.2500    0.0000 C.2     1  UNL1        0.4173
     18 H           2.8660   -0.3700    0.0000 H       1  UNL1        0.0295
     19 H           3.3335   -0.7249    0.0000 H       1  UNL1        0.0269
     20 H           4.1306   -0.7249    0.0000 H       1  UNL1        0.0269
     21 H           4.9966    0.7249    0.0000 H       1  UNL1        0.0298
     22 H           4.1996    0.7249    0.0000 H       1  UNL1        0.0298
     23 H           1.6900    0.2869    0.0000 H       1  UNL1        0.0232
     24 H           1.4631   -0.5600    0.0000 H       1  UNL1        0.0232
     25 H           2.3100   -0.7869    0.0000 H       1  UNL1        0.0232
     26 H           3.4860    1.2500    0.0000 H       1  UNL1        0.0232
     27 H           2.8660    1.8700    0.0000 H       1  UNL1        0.0232
     28 H           2.2460    1.2500    0.0000 H       1  UNL1        0.0232
     29 H           5.0656   -0.7249    0.0000 H       1  UNL1        0.0697
     30 H           5.8626   -0.7249    0.0000 H       1  UNL1        0.0697
     31 H          11.9248    0.7249    0.0000 H       1  UNL1        0.0266
     32 H          11.1278    0.7249    0.0000 H       1  UNL1        0.0266
     33 H          10.2617   -0.7249    0.0000 H       1  UNL1        0.0298
     34 H          11.0588   -0.7249    0.0000 H       1  UNL1        0.0298
     35 H          11.9938   -0.7249    0.0000 H       1  UNL1        0.0263
     36 H          12.7908   -0.7249    0.0000 H       1  UNL1        0.0263
     37 H          10.1928    0.7249    0.0000 H       1  UNL1        0.0697
     38 H           9.3957    0.7249    0.0000 H       1  UNL1        0.0697
     39 H          13.5683   -0.2869    0.0000 H       1  UNL1        0.0230
     40 H          13.7953    0.5600    0.0000 H       1  UNL1        0.0230
     41 H          12.9483    0.7869    0.0000 H       1  UNL1        0.0230
@<TRIPOS>BOND
     1     1    10    1
     2     1    16    1
     3     2    14    1
     4     2    17    1
     5     3    16    2
     6     4    17    2
     7     5     6    1
     8     5     8    1
     9     5     9    1
    10     5    18    1
    11     6     7    1
    12     6    19    1
    13     6    20    1
    14     7    10    1
    15     7    21    1
    16     7    22    1
    17     8    23    1
    18     8    24    1
    19     8    25    1
    20     9    26    1
    21     9    27    1
    22     9    28    1
    23    10    29    1
    24    10    30    1
    25    11    12    1
    26    11    13    1
    27    11    31    1
    28    11    32    1
    29    12    14    1
    30    12    33    1
    31    12    34    1
    32    13    15    1
    33    13    35    1
    34    13    36    1
    35    14    37    1
    36    14    38    1
    37    15    39    1
    38    15    40    1
    39    15    41    1
    40    16    17    1
