@<TRIPOS>MOLECULE
IMPHY006978
 13 13 0 0 0
SMALL
GASTEIGER

@<TRIPOS>ATOM
      1 N           3.7320   -1.0000    0.0000 N.ar    1  UNL1       -0.2572
      2 N           3.7320    1.0000    0.0000 N.ar    1  UNL1       -0.2600
      3 C           2.8660   -0.5000    0.0000 C.ar    1  UNL1        0.0562
      4 C           2.0000   -1.0000    0.0000 C.3     1  UNL1       -0.0209
      5 C           2.8660    0.5000    0.0000 C.ar    1  UNL1        0.0486
      6 C           4.5981   -0.5000    0.0000 C.ar    1  UNL1        0.0459
      7 C           4.5981    0.5000    0.0000 C.ar    1  UNL1        0.0457
      8 H           1.6900   -0.4631    0.0000 H       1  UNL1        0.0293
      9 H           1.4631   -1.3100    0.0000 H       1  UNL1        0.0293
     10 H           2.3100   -1.5369    0.0000 H       1  UNL1        0.0293
     11 H           2.3291    0.8100    0.0000 H       1  UNL1        0.0848
     12 H           5.1350   -0.8100    0.0000 H       1  UNL1        0.0845
     13 H           5.1350    0.8100    0.0000 H       1  UNL1        0.0845
@<TRIPOS>BOND
     1     1     3   ar
     2     1     6   ar
     3     2     5   ar
     4     2     7   ar
     5     3     4    1
     6     3     5   ar
     7     4     8    1
     8     4     9    1
     9     4    10    1
    10     5    11    1
    11     6     7   ar
    12     6    12    1
    13     7    13    1
