@<TRIPOS>MOLECULE
IMPHY017093
 32 31 0 0 0
SMALL
GASTEIGER

@<TRIPOS>ATOM
      1 C           4.5981   -0.2500    0.0000 C.3     1  UNL1       -0.0528
      2 C           5.4641    0.2500    0.0000 C.3     1  UNL1       -0.0528
      3 C           3.7320    0.2500    0.0000 C.3     1  UNL1       -0.0507
      4 C           6.3301   -0.2500    0.0000 C.3     1  UNL1       -0.0507
      5 C           2.8660   -0.2500    0.0000 C.3     1  UNL1       -0.0467
      6 C           7.1962    0.2500    0.0000 C.3     1  UNL1       -0.0467
      7 C           2.0000    0.2500    0.0000 C.3     1  UNL1       -0.0627
      8 C           2.8660   -1.2500    0.0000 C.3     1  UNL1       -0.0627
      9 C           8.0622   -0.2500    0.0000 C.3     1  UNL1       -0.0627
     10 C           7.1962    1.2500    0.0000 C.3     1  UNL1       -0.0627
     11 H           4.1996   -0.7249    0.0000 H       1  UNL1        0.0265
     12 H           4.9966   -0.7249    0.0000 H       1  UNL1        0.0265
     13 H           5.8626    0.7249    0.0000 H       1  UNL1        0.0265
     14 H           5.0656    0.7249    0.0000 H       1  UNL1        0.0265
     15 H           4.1306    0.7249    0.0000 H       1  UNL1        0.0268
     16 H           3.3335    0.7249    0.0000 H       1  UNL1        0.0268
     17 H           5.9316   -0.7249    0.0000 H       1  UNL1        0.0268
     18 H           6.7287   -0.7249    0.0000 H       1  UNL1        0.0268
     19 H           2.8660    0.3700    0.0000 H       1  UNL1        0.0295
     20 H           6.6592    0.5600    0.0000 H       1  UNL1        0.0295
     21 H           2.3100    0.7869    0.0000 H       1  UNL1        0.0232
     22 H           1.4631    0.5600    0.0000 H       1  UNL1        0.0232
     23 H           1.6900   -0.2869    0.0000 H       1  UNL1        0.0232
     24 H           2.2460   -1.2500    0.0000 H       1  UNL1        0.0232
     25 H           2.8660   -1.8700    0.0000 H       1  UNL1        0.0232
     26 H           3.4860   -1.2500    0.0000 H       1  UNL1        0.0232
     27 H           7.7522   -0.7869    0.0000 H       1  UNL1        0.0232
     28 H           8.5991   -0.5600    0.0000 H       1  UNL1        0.0232
     29 H           8.3722    0.2869    0.0000 H       1  UNL1        0.0232
     30 H           7.8162    1.2500    0.0000 H       1  UNL1        0.0232
     31 H           7.1962    1.8700    0.0000 H       1  UNL1        0.0232
     32 H           6.5762    1.2500    0.0000 H       1  UNL1        0.0232
@<TRIPOS>BOND
     1     1     2    1
     2     1     3    1
     3     1    11    1
     4     1    12    1
     5     2     4    1
     6     2    13    1
     7     2    14    1
     8     3     5    1
     9     3    15    1
    10     3    16    1
    11     4     6    1
    12     4    17    1
    13     4    18    1
    14     5     7    1
    15     5     8    1
    16     5    19    1
    17     6     9    1
    18     6    10    1
    19     6    20    1
    20     7    21    1
    21     7    22    1
    22     7    23    1
    23     8    24    1
    24     8    25    1
    25     8    26    1
    26     9    27    1
    27     9    28    1
    28     9    29    1
    29    10    30    1
    30    10    31    1
    31    10    32    1
