@<TRIPOS>MOLECULE
IMPHY002731
 38 41 0 0 0
SMALL
GASTEIGER

@<TRIPOS>ATOM
      1 O           6.3981    0.4396    0.0000 O.2     1  UNL1       -0.4178
      2 O           2.8660   -0.5812    0.0000 O.2     1  UNL1       -0.4177
      3 O           6.3038    2.4719    0.0000 O.3     1  UNL1       -0.4884
      4 O           2.8611   -2.5664    0.0000 O.3     1  UNL1       -0.4885
      5 O           4.5632    3.4178    0.0000 O.3     1  UNL1       -0.4884
      6 O           2.8611    2.4041    0.0000 O.3     1  UNL1       -0.5027
      7 O           4.5632   -3.5801    0.0000 O.3     1  UNL1       -0.5032
      8 O           2.0000    0.9188    0.0000 O.2     1  UNL1       -0.2444
      9 O           7.2622   -1.1053    0.0000 O.2     1  UNL1       -0.2445
     10 C           4.5981    0.4188    0.0000 C.ar    1  UNL1        0.0504
     11 C           4.5981   -0.5812    0.0000 C.ar    1  UNL1        0.0469
     12 C           3.7320    0.9188    0.0000 C.ar    1  UNL1        0.1159
     13 C           5.4920    0.9535    0.0000 C.ar    1  UNL1        0.1858
     14 C           5.4920   -1.1158    0.0000 C.ar    1  UNL1        0.0744
     15 C           3.7320   -1.0812    0.0000 C.ar    1  UNL1        0.1856
     16 C           5.4542    1.9445    0.0000 C.ar    1  UNL1        0.2086
     17 C           3.7308    1.9105    0.0000 C.ar    1  UNL1        0.1773
     18 C           3.7308   -2.0729    0.0000 C.ar    1  UNL1        0.2047
     19 C           4.5828    2.4180    0.0000 C.ar    1  UNL1        0.2079
     20 C           2.8660    0.4188    0.0000 C.ar    1  UNL1        0.3490
     21 C           5.4542   -2.1068    0.0000 C.ar    1  UNL1       -0.0017
     22 C           6.3981   -0.6020    0.0000 C.ar    1  UNL1        0.3454
     23 C           4.5828   -2.5803    0.0000 C.ar    1  UNL1        0.1630
     24 C           6.2718    3.4714    0.0000 C.3     1  UNL1        0.0791
     25 C           3.6875    3.9006    0.0000 C.3     1  UNL1        0.0791
     26 C           2.8537   -3.5664    0.0000 C.3     1  UNL1        0.0791
     27 H           5.9810   -2.4338    0.0000 H       1  UNL1        0.0664
     28 H           2.8565    3.0241    0.0000 H       1  UNL1        0.2923
     29 H           5.0939   -3.9006    0.0000 H       1  UNL1        0.2923
     30 H           6.8915    3.4912    0.0000 H       1  UNL1        0.0660
     31 H           6.2520    4.0911    0.0000 H       1  UNL1        0.0660
     32 H           5.6522    3.4516    0.0000 H       1  UNL1        0.0660
     33 H           3.9868    4.4436    0.0000 H       1  UNL1        0.0660
     34 H           3.1445    4.2000    0.0000 H       1  UNL1        0.0660
     35 H           3.3881    3.3577    0.0000 H       1  UNL1        0.0660
     36 H           2.2337   -3.5618    0.0000 H       1  UNL1        0.0660
     37 H           2.8491   -4.1864    0.0000 H       1  UNL1        0.0660
     38 H           3.4737   -3.5710    0.0000 H       1  UNL1        0.0660
@<TRIPOS>BOND
     1     1    13   ar
     2     1    22   ar
     3     2    15   ar
     4     2    20   ar
     5     3    16    1
     6     3    24    1
     7     4    18    1
     8     4    26    1
     9     5    19    1
    10     5    25    1
    11     6    17    1
    12     6    28    1
    13     7    23    1
    14     7    29    1
    15     8    20    2
    16     9    22    2
    17    10    11   ar
    18    10    12   ar
    19    10    13   ar
    20    11    14   ar
    21    11    15   ar
    22    12    17   ar
    23    12    20   ar
    24    13    16   ar
    25    14    21   ar
    26    14    22   ar
    27    15    18   ar
    28    16    19   ar
    29    17    19   ar
    30    18    23   ar
    31    21    23   ar
    32    21    27    1
    33    24    30    1
    34    24    31    1
    35    24    32    1
    36    25    33    1
    37    25    34    1
    38    25    35    1
    39    26    36    1
    40    26    37    1
    41    26    38    1
