@<TRIPOS>MOLECULE
IMPHY013684
 39 41 0 0 0
SMALL
GASTEIGER

@<TRIPOS>ATOM
      1 O           5.1350    0.1377    0.0000 O.3     1  UNL1       -0.3313
      2 O           6.8671    0.1377    0.0000 O.3     1  UNL1       -0.4601
      3 O           5.1350   -2.8623    0.0000 O.3     1  UNL1       -0.3864
      4 O           3.4030   -1.8623    0.0000 O.3     1  UNL1       -0.3865
      5 O           6.8671   -1.8623    0.0000 O.3     1  UNL1       -0.3829
      6 O           2.5369   -0.3623    0.0000 O.3     1  UNL1       -0.3924
      7 O           8.6270    3.1723    0.0000 O.2     1  UNL1       -0.4220
      8 O          10.3972    3.1618    0.0000 O.2     1  UNL1       -0.2452
      9 C           5.1350   -1.8623    0.0000 C.3     1  UNL1        0.1152
     10 C           4.2690   -1.3623    0.0000 C.3     1  UNL1        0.1120
     11 C           6.0010   -1.3623    0.0000 C.3     1  UNL1        0.1454
     12 C           4.2690   -0.3623    0.0000 C.3     1  UNL1        0.1140
     13 C           6.0010   -0.3623    0.0000 C.3     1  UNL1        0.2308
     14 C           3.4030    0.1377    0.0000 C.3     1  UNL1        0.0731
     15 C           6.8671    1.1377    0.0000 C.ar    1  UNL1        0.1346
     16 C           7.7331    1.6377    0.0000 C.ar    1  UNL1        0.0593
     17 C           6.0010    1.6377    0.0000 C.ar    1  UNL1       -0.0190
     18 C           7.7331    2.6377    0.0000 C.ar    1  UNL1        0.1426
     19 C           8.6270    1.1030    0.0000 C.ar    1  UNL1       -0.0408
     20 C           6.0010    2.6377    0.0000 C.ar    1  UNL1       -0.0548
     21 C           6.8671    3.1377    0.0000 C.ar    1  UNL1       -0.0184
     22 C           9.5331    1.6168    0.0000 C.ar    1  UNL1        0.0237
     23 C           9.5331    2.6585    0.0000 C.ar    1  UNL1        0.3372
     24 H           4.5981   -2.1723    0.0000 H       1  UNL1        0.0648
     25 H           4.2690   -1.9823    0.0000 H       1  UNL1        0.0647
     26 H           6.0010   -1.9823    0.0000 H       1  UNL1        0.0683
     27 H           4.2690    0.2577    0.0000 H       1  UNL1        0.0647
     28 H           6.0010    0.2577    0.0000 H       1  UNL1        0.1084
     29 H           3.8015    0.6126    0.0000 H       1  UNL1        0.0584
     30 H           3.0044    0.6126    0.0000 H       1  UNL1        0.0584
     31 H           4.5981   -3.1723    0.0000 H       1  UNL1        0.2100
     32 H           3.4030   -2.4823    0.0000 H       1  UNL1        0.2100
     33 H           6.8671   -2.4823    0.0000 H       1  UNL1        0.2102
     34 H           2.0000   -0.0523    0.0000 H       1  UNL1        0.2095
     35 H           5.4641    1.3277    0.0000 H       1  UNL1        0.0654
     36 H           8.6199    0.4830    0.0000 H       1  UNL1        0.0628
     37 H           5.4641    2.9477    0.0000 H       1  UNL1        0.0620
     38 H           6.8671    3.7577    0.0000 H       1  UNL1        0.0654
     39 H          10.0688    1.3048    0.0000 H       1  UNL1        0.0689
@<TRIPOS>BOND
     1     1    12    1
     2     1    13    1
     3     2    13    1
     4     2    15    1
     5     3     9    1
     6     3    31    1
     7     4    10    1
     8     4    32    1
     9     5    11    1
    10     5    33    1
    11     6    14    1
    12     6    34    1
    13     7    18   ar
    14     7    23   ar
    15     8    23    2
    16     9    10    1
    17     9    11    1
    18     9    24    1
    19    10    12    1
    20    10    25    1
    21    11    13    1
    22    11    26    1
    23    12    14    1
    24    12    27    1
    25    13    28    1
    26    14    29    1
    27    14    30    1
    28    15    16   ar
    29    15    17   ar
    30    16    18   ar
    31    16    19   ar
    32    17    20   ar
    33    17    35    1
    34    18    21   ar
    35    19    22   ar
    36    19    36    1
    37    20    21   ar
    38    20    37    1
    39    21    38    1
    40    22    23   ar
    41    22    39    1
