@<TRIPOS>MOLECULE
IMPHY006936
 23 23 0 0 0
SMALL
GASTEIGER

@<TRIPOS>ATOM
      1 O           6.3301    1.0950    0.0000 O.3     1  UNL1       -0.4913
      2 O           2.8660    1.0950    0.0000 O.3     1  UNL1       -0.4913
      3 O           4.5981    2.0950    0.0000 O.3     1  UNL1       -0.5009
      4 O           3.7320   -2.4050    0.0000 O.2     1  UNL1       -0.2957
      5 C           5.4641    0.5950    0.0000 C.ar    1  UNL1        0.1656
      6 C           3.7320    0.5950    0.0000 C.ar    1  UNL1        0.1656
      7 C           4.5981    1.0950    0.0000 C.ar    1  UNL1        0.2010
      8 C           4.5981   -0.9050    0.0000 C.ar    1  UNL1        0.0213
      9 C           5.4641   -0.4050    0.0000 C.ar    1  UNL1       -0.0059
     10 C           3.7320   -0.4050    0.0000 C.ar    1  UNL1       -0.0059
     11 C           4.5981   -1.9050    0.0000 C.2     1  UNL1        0.1504
     12 C           7.1962    0.5950    0.0000 C.3     1  UNL1        0.0790
     13 C           2.0000    0.5950    0.0000 C.3     1  UNL1        0.0790
     14 H           6.0010   -0.7150    0.0000 H       1  UNL1        0.0662
     15 H           3.1951   -0.7150    0.0000 H       1  UNL1        0.0662
     16 H           5.1350   -2.2150    0.0000 H       1  UNL1        0.1081
     17 H           5.1350    2.4050    0.0000 H       1  UNL1        0.2924
     18 H           6.8862    0.0581    0.0000 H       1  UNL1        0.0660
     19 H           7.7331    0.2850    0.0000 H       1  UNL1        0.0660
     20 H           7.5062    1.1319    0.0000 H       1  UNL1        0.0660
     21 H           1.6900    1.1319    0.0000 H       1  UNL1        0.0660
     22 H           1.4631    0.2850    0.0000 H       1  UNL1        0.0660
     23 H           2.3100    0.0581    0.0000 H       1  UNL1        0.0660
@<TRIPOS>BOND
     1     1     5    1
     2     1    12    1
     3     2     6    1
     4     2    13    1
     5     3     7    1
     6     3    17    1
     7     4    11    2
     8     5     7   ar
     9     5     9   ar
    10     6     7   ar
    11     6    10   ar
    12     8     9   ar
    13     8    10   ar
    14     8    11    1
    15     9    14    1
    16    10    15    1
    17    11    16    1
    18    12    18    1
    19    12    19    1
    20    12    20    1
    21    13    21    1
    22    13    22    1
    23    13    23    1
