@<TRIPOS>MOLECULE
IMPHY002834
 21 22 0 0 0
SMALL
GASTEIGER

@<TRIPOS>ATOM
      1 O           5.5443   -1.2097    0.0000 O.3     1  UNL1       -0.3729
      2 O           4.5981    1.0950    0.0000 O.3     1  UNL1       -0.3819
      3 O           2.0000   -1.4050    0.0000 O.2     1  UNL1       -0.2926
      4 C           4.5981    0.0950    0.0000 C.3     1  UNL1        0.1130
      5 C           4.5981   -0.9050    0.0000 C.3     1  UNL1        0.0979
      6 C           5.5443    0.3997    0.0000 C.3     1  UNL1        0.0056
      7 C           3.7320   -1.4050    0.0000 C.3     1  UNL1        0.0392
      8 C           6.1279   -0.4050    0.0000 C.3     1  UNL1        0.0512
      9 C           3.7320    0.5950    0.0000 C.2     1  UNL1       -0.0470
     10 C           2.8660   -0.9050    0.0000 C.2     1  UNL1        0.1584
     11 C           2.8660    0.0950    0.0000 C.2     1  UNL1       -0.0203
     12 H           4.6880   -1.7502    0.0000 H       1  UNL1        0.0632
     13 H           6.0817    0.7090    0.0000 H       1  UNL1        0.0319
     14 H           5.2933    0.9666    0.0000 H       1  UNL1        0.0319
     15 H           3.3335   -1.8800    0.0000 H       1  UNL1        0.0371
     16 H           4.1306   -1.8800    0.0000 H       1  UNL1        0.0371
     17 H           6.5888   -0.8197    0.0000 H       1  UNL1        0.0561
     18 H           6.5888    0.0097    0.0000 H       1  UNL1        0.0561
     19 H           3.7320    1.2150    0.0000 H       1  UNL1        0.0602
     20 H           2.3291    0.4050    0.0000 H       1  UNL1        0.0650
     21 H           5.1350    1.4050    0.0000 H       1  UNL1        0.2107
@<TRIPOS>BOND
     1     1     5    1
     2     1     8    1
     3     2     4    1
     4     2    21    1
     5     3    10    2
     6     4     5    1
     7     4     6    1
     8     4     9    1
     9     5     7    1
    10     5    12    1
    11     6     8    1
    12     6    13    1
    13     6    14    1
    14     7    10    1
    15     7    15    1
    16     7    16    1
    17     8    17    1
    18     8    18    1
    19     9    11    2
    20     9    19    1
    21    10    11    1
    22    11    20    1
