@<TRIPOS>MOLECULE
IMPHY014131
 53 57 0 0 0
SMALL
GASTEIGER

@<TRIPOS>ATOM
      1 O           6.3678    0.6672    0.0000 O.3     1  UNL1       -0.3748
      2 O           3.4842   -1.0204    0.0000 O.2     1  UNL1       -0.2721
      3 O           4.1565   -3.0895    0.0000 O.3     1  UNL1       -0.2756
      4 O           8.1161   -3.6022    0.0000 O.3     1  UNL1       -0.4950
      5 N           3.0886    0.8065    0.0000 N.3     1  UNL1       -0.3092
      6 N           4.7443   -2.2805    0.0000 N.am    1  UNL1       -0.1475
      7 C           4.7443    1.4490    0.0000 C.3     1  UNL1        0.0045
      8 C           5.2443   -0.7417    0.0000 C.3     1  UNL1        0.1035
      9 C           4.3788    2.4244    0.0000 C.3     1  UNL1       -0.0100
     10 C           4.1208    0.6672    0.0000 C.3     1  UNL1        0.0147
     11 C           6.1453   -0.3078    0.0000 C.3     1  UNL1        0.0773
     12 C           4.3434   -0.3078    0.0000 C.3     1  UNL1       -0.0166
     13 C           4.4733    0.5483    0.0000 C.3     1  UNL1       -0.0184
     14 C           5.7443    1.4490    0.0000 C.3     1  UNL1        0.0528
     15 C           3.3500    2.5875    0.0000 C.2     1  UNL1       -0.0564
     16 C           6.0533   -1.3294    0.0000 C.ar    1  UNL1       -0.0059
     17 C           4.4353   -1.3294    0.0000 C.2     1  UNL1        0.2559
     18 C           2.7005    1.7732    0.0000 C.3     1  UNL1        0.0178
     19 C           5.7443   -2.2805    0.0000 C.ar    1  UNL1        0.0721
     20 C           2.9882    3.5198    0.0000 C.2     1  UNL1       -0.0864
     21 C           7.0688   -1.0972    0.0000 C.ar    1  UNL1       -0.0522
     22 C           6.4293   -3.0652    0.0000 C.ar    1  UNL1        0.0041
     23 C           7.7717   -1.8659    0.0000 C.ar    1  UNL1       -0.0195
     24 C           2.0000    3.6727    0.0000 C.3     1  UNL1       -0.0465
     25 C           7.4498   -2.8565    0.0000 C.ar    1  UNL1        0.1220
     26 C           4.5633   -4.0031    0.0000 C.3     1  UNL1        0.0629
     27 C           9.0950   -3.3981    0.0000 C.3     1  UNL1        0.0788
     28 H           5.2743    2.1135    0.0000 H       1  UNL1        0.0344
     29 H           4.3360    3.2733    0.0000 H       1  UNL1        0.0351
     30 H           3.5909    0.0026    0.0000 H       1  UNL1        0.0464
     31 H           6.9111    0.0610    0.0000 H       1  UNL1        0.0610
     32 H           3.7234   -0.3078    0.0000 H       1  UNL1        0.0294
     33 H           4.2054   -0.9122    0.0000 H       1  UNL1        0.0294
     34 H           3.8581    0.6251    0.0000 H       1  UNL1        0.0296
     35 H           4.2909   -0.0442    0.0000 H       1  UNL1        0.0296
     36 H           6.3029    1.7180    0.0000 H       1  UNL1        0.0563
     37 H           5.6064    2.0534    0.0000 H       1  UNL1        0.0563
     38 H           2.7076    0.3173    0.0000 H       1  UNL1        0.1225
     39 H           2.2891    2.2370    0.0000 H       1  UNL1        0.0470
     40 H           2.1732    1.4472    0.0000 H       1  UNL1        0.0470
     41 H           3.3767    4.0031    0.0000 H       1  UNL1        0.0569
     42 H           7.2535   -0.5054    0.0000 H       1  UNL1        0.0622
     43 H           6.2309   -3.6526    0.0000 H       1  UNL1        0.0674
     44 H           8.3776   -1.7346    0.0000 H       1  UNL1        0.0654
     45 H           2.0948    4.2854    0.0000 H       1  UNL1        0.0272
     46 H           1.3873    3.7674    0.0000 H       1  UNL1        0.0272
     47 H           1.9052    3.0600    0.0000 H       1  UNL1        0.0272
     48 H           3.9969   -4.2552    0.0000 H       1  UNL1        0.0547
     49 H           4.8154   -4.5695    0.0000 H       1  UNL1        0.0547
     50 H           5.1297   -3.7509    0.0000 H       1  UNL1        0.0547
     51 H           9.2216   -4.0050    0.0000 H       1  UNL1        0.0660
     52 H           9.7020   -3.2715    0.0000 H       1  UNL1        0.0660
     53 H           8.9684   -2.7912    0.0000 H       1  UNL1        0.0660
@<TRIPOS>BOND
     1     1    11    1
     2     1    14    1
     3     2    17    2
     4     3     6    1
     5     3    26    1
     6     4    25    1
     7     4    27    1
     8     5    10    1
     9     5    18    1
    10     5    38    1
    11     6    17   am
    12     6    19    1
    13     7     9    1
    14     7    10    1
    15     7    14    1
    16     7    28    1
    17     8    11    1
    18     8    12    1
    19     8    16    1
    20     8    17    1
    21     9    13    1
    22     9    15    1
    23     9    29    1
    24    10    12    1
    25    10    30    1
    26    11    13    1
    27    11    31    1
    28    12    32    1
    29    12    33    1
    30    13    34    1
    31    13    35    1
    32    14    36    1
    33    14    37    1
    34    15    18    1
    35    15    20    2
    36    16    19   ar
    37    16    21   ar
    38    18    39    1
    39    18    40    1
    40    19    22   ar
    41    20    24    1
    42    20    41    1
    43    21    23   ar
    44    21    42    1
    45    22    25   ar
    46    22    43    1
    47    23    25   ar
    48    23    44    1
    49    24    45    1
    50    24    46    1
    51    24    47    1
    52    26    48    1
    53    26    49    1
    54    26    50    1
    55    27    51    1
    56    27    52    1
    57    27    53    1
