@<TRIPOS>MOLECULE
IMPHY005560
 30 29 0 0 0
SMALL
GASTEIGER

@<TRIPOS>ATOM
      1 O           2.5369    0.4400    0.0000 O.3     1  UNL1       -0.4775
      2 O           3.4030   -1.0600    0.0000 O.2     1  UNL1       -0.2458
      3 C           8.5991   -0.0600    0.0000 C.3     1  UNL1       -0.0531
      4 C           7.7331    0.4400    0.0000 C.3     1  UNL1       -0.0528
      5 C           9.4651    0.4400    0.0000 C.3     1  UNL1       -0.0533
      6 C           6.8671   -0.0600    0.0000 C.3     1  UNL1       -0.0496
      7 C          10.3312   -0.0600    0.0000 C.3     1  UNL1       -0.0559
      8 C           6.0010    0.4400    0.0000 C.3     1  UNL1       -0.0343
      9 C          11.1972    0.4400    0.0000 C.3     1  UNL1       -0.0653
     10 C           5.1350   -0.0600    0.0000 C.2     1  UNL1       -0.0773
     11 C           4.2690    0.4400    0.0000 C.2     1  UNL1        0.0184
     12 C           3.4030   -0.0600    0.0000 C.2     1  UNL1        0.3292
     13 H           8.2006   -0.5349    0.0000 H       1  UNL1        0.0265
     14 H           8.9976   -0.5349    0.0000 H       1  UNL1        0.0265
     15 H           8.1316    0.9149    0.0000 H       1  UNL1        0.0265
     16 H           7.3346    0.9149    0.0000 H       1  UNL1        0.0265
     17 H           9.8637    0.9149    0.0000 H       1  UNL1        0.0265
     18 H           9.0666    0.9149    0.0000 H       1  UNL1        0.0265
     19 H           6.4685   -0.5349    0.0000 H       1  UNL1        0.0268
     20 H           7.2656   -0.5349    0.0000 H       1  UNL1        0.0268
     21 H           9.9326   -0.5349    0.0000 H       1  UNL1        0.0263
     22 H          10.7297   -0.5349    0.0000 H       1  UNL1        0.0263
     23 H           6.3996    0.9149    0.0000 H       1  UNL1        0.0307
     24 H           5.6025    0.9149    0.0000 H       1  UNL1        0.0307
     25 H          11.5072   -0.0969    0.0000 H       1  UNL1        0.0230
     26 H          11.7341    0.7500    0.0000 H       1  UNL1        0.0230
     27 H          10.8872    0.9769    0.0000 H       1  UNL1        0.0230
     28 H           5.1350   -0.6800    0.0000 H       1  UNL1        0.0574
     29 H           4.2690    1.0600    0.0000 H       1  UNL1        0.0686
     30 H           2.0000    0.1300    0.0000 H       1  UNL1        0.2954
@<TRIPOS>BOND
     1     1    12    1
     2     1    30    1
     3     2    12    2
     4     3     4    1
     5     3     5    1
     6     3    13    1
     7     3    14    1
     8     4     6    1
     9     4    15    1
    10     4    16    1
    11     5     7    1
    12     5    17    1
    13     5    18    1
    14     6     8    1
    15     6    19    1
    16     6    20    1
    17     7     9    1
    18     7    21    1
    19     7    22    1
    20     8    10    1
    21     8    23    1
    22     8    24    1
    23     9    25    1
    24     9    26    1
    25     9    27    1
    26    10    11    2
    27    10    28    1
    28    11    12    1
    29    11    29    1
