@<TRIPOS>MOLECULE
IMPHY004658
 33 32 0 0 0
SMALL
GASTEIGER

@<TRIPOS>ATOM
      1 O           7.7331    1.0600    0.0000 O.3     1  UNL1       -0.3947
      2 C           5.1350   -1.4400    0.0000 C.3     1  UNL1       -0.0165
      3 C           3.4030   -0.4400    0.0000 C.3     1  UNL1       -0.0165
      4 C           6.8671   -0.4400    0.0000 C.3     1  UNL1       -0.0115
      5 C           4.2690   -1.9400    0.0000 C.2     1  UNL1       -0.0839
      6 C           6.0010   -1.9400    0.0000 C.2     1  UNL1       -0.0841
      7 C           3.4030   -1.4400    0.0000 C.2     1  UNL1       -0.0839
      8 C           6.8671   -1.4400    0.0000 C.2     1  UNL1       -0.0855
      9 C           2.5369    0.0600    0.0000 C.2     1  UNL1       -0.0842
     10 C           3.4030    1.5600    0.0000 C.3     1  UNL1       -0.0376
     11 C           2.5369    1.0600    0.0000 C.2     1  UNL1       -0.0879
     12 C           7.7331    0.0600    0.0000 C.3     1  UNL1        0.0476
     13 C           3.4030    2.5600    0.0000 C.3     1  UNL1       -0.0618
     14 H           5.5335   -0.9651    0.0000 H       1  UNL1        0.0350
     15 H           4.7365   -0.9651    0.0000 H       1  UNL1        0.0350
     16 H           4.0135   -0.5477    0.0000 H       1  UNL1        0.0350
     17 H           3.6150    0.1426    0.0000 H       1  UNL1        0.0350
     18 H           6.6550    0.1426    0.0000 H       1  UNL1        0.0329
     19 H           6.2565   -0.5477    0.0000 H       1  UNL1        0.0329
     20 H           4.2690   -2.5600    0.0000 H       1  UNL1        0.0572
     21 H           6.0010   -2.5600    0.0000 H       1  UNL1        0.0572
     22 H           2.8660   -1.7500    0.0000 H       1  UNL1        0.0572
     23 H           7.4040   -1.7500    0.0000 H       1  UNL1        0.0570
     24 H           2.0000   -0.2500    0.0000 H       1  UNL1        0.0572
     25 H           3.6150    0.9774    0.0000 H       1  UNL1        0.0305
     26 H           4.0135    1.6677    0.0000 H       1  UNL1        0.0305
     27 H           2.0000    1.3700    0.0000 H       1  UNL1        0.0569
     28 H           7.9451   -0.5226    0.0000 H       1  UNL1        0.0560
     29 H           8.3437    0.1677    0.0000 H       1  UNL1        0.0560
     30 H           4.0230    2.5600    0.0000 H       1  UNL1        0.0233
     31 H           3.4030    3.1800    0.0000 H       1  UNL1        0.0233
     32 H           2.7830    2.5600    0.0000 H       1  UNL1        0.0233
     33 H           8.2700    1.3700    0.0000 H       1  UNL1        0.2094
@<TRIPOS>BOND
     1     1    12    1
     2     1    33    1
     3     2     5    1
     4     2     6    1
     5     2    14    1
     6     2    15    1
     7     3     7    1
     8     3     9    1
     9     3    16    1
    10     3    17    1
    11     4     8    1
    12     4    12    1
    13     4    18    1
    14     4    19    1
    15     5     7    2
    16     5    20    1
    17     6     8    2
    18     6    21    1
    19     7    22    1
    20     8    23    1
    21     9    11    2
    22     9    24    1
    23    10    11    1
    24    10    13    1
    25    10    25    1
    26    10    26    1
    27    11    27    1
    28    12    28    1
    29    12    29    1
    30    13    30    1
    31    13    31    1
    32    13    32    1
