@<TRIPOS>MOLECULE
IMPHY006283
 52 52 0 0 0
SMALL
GASTEIGER

@<TRIPOS>ATOM
      1 O           5.4641    2.6900    0.0000 O.3     1  UNL1       -0.5055
      2 O           7.1962   -0.3100    0.0000 O.3     1  UNL1       -0.5064
      3 O           8.0622    4.1900    0.0000 O.3     1  UNL1       -0.4770
      4 O           6.3301    4.1900    0.0000 O.2     1  UNL1       -0.2450
      5 C           8.0622    2.1900    0.0000 C.ar    1  UNL1       -0.0264
      6 C           6.3301    1.1900    0.0000 C.ar    1  UNL1        0.0399
      7 C           8.9282    2.6900    0.0000 C.3     1  UNL1       -0.0269
      8 C           5.4641    0.6900    0.0000 C.3     1  UNL1       -0.0023
      9 C           7.1962    2.6900    0.0000 C.ar    1  UNL1        0.1038
     10 C           6.3301    2.1900    0.0000 C.ar    1  UNL1        0.1380
     11 C           7.1962    0.6900    0.0000 C.ar    1  UNL1        0.1241
     12 C           8.0622    1.1900    0.0000 C.ar    1  UNL1       -0.0157
     13 C           4.5981   -0.8100    0.0000 C.2     1  UNL1       -0.0759
     14 C           4.5981   -1.8100    0.0000 C.3     1  UNL1       -0.0286
     15 C           9.7942    2.1900    0.0000 C.3     1  UNL1       -0.0519
     16 C           5.4641   -0.3100    0.0000 C.2     1  UNL1       -0.0805
     17 C           3.7320   -2.3100    0.0000 C.3     1  UNL1       -0.0308
     18 C           3.7320   -0.3100    0.0000 C.3     1  UNL1       -0.0438
     19 C          10.6603    2.6900    0.0000 C.3     1  UNL1       -0.0650
     20 C           7.1962    3.6900    0.0000 C.2     1  UNL1        0.3406
     21 C           3.7320   -3.3100    0.0000 C.2     1  UNL1       -0.0850
     22 C           2.8660   -3.8100    0.0000 C.2     1  UNL1       -0.0796
     23 C           2.8660   -4.8100    0.0000 C.3     1  UNL1       -0.0440
     24 C           2.0000   -3.3100    0.0000 C.3     1  UNL1       -0.0440
     25 H           9.3267    3.1650    0.0000 H       1  UNL1        0.0313
     26 H           8.5297    3.1650    0.0000 H       1  UNL1        0.0313
     27 H           5.2520    1.2726    0.0000 H       1  UNL1        0.0358
     28 H           4.8535    0.5823    0.0000 H       1  UNL1        0.0358
     29 H           8.5991    0.8800    0.0000 H       1  UNL1        0.0657
     30 H           4.8101   -2.3926    0.0000 H       1  UNL1        0.0313
     31 H           5.2087   -1.7023    0.0000 H       1  UNL1        0.0313
     32 H           9.3957    1.7150    0.0000 H       1  UNL1        0.0266
     33 H          10.1928    1.7150    0.0000 H       1  UNL1        0.0266
     34 H           6.0010   -0.6200    0.0000 H       1  UNL1        0.0575
     35 H           3.5200   -1.7274    0.0000 H       1  UNL1        0.0310
     36 H           3.1215   -2.4177    0.0000 H       1  UNL1        0.0310
     37 H           4.0420    0.2269    0.0000 H       1  UNL1        0.0274
     38 H           3.1951    0.0000    0.0000 H       1  UNL1        0.0274
     39 H           3.4220   -0.8469    0.0000 H       1  UNL1        0.0274
     40 H          10.9703    2.1531    0.0000 H       1  UNL1        0.0230
     41 H          11.1972    3.0000    0.0000 H       1  UNL1        0.0230
     42 H          10.3503    3.2269    0.0000 H       1  UNL1        0.0230
     43 H           4.2690   -3.6200    0.0000 H       1  UNL1        0.0572
     44 H           4.9272    2.3800    0.0000 H       1  UNL1        0.2922
     45 H           7.7331   -0.6200    0.0000 H       1  UNL1        0.2921
     46 H           2.2460   -4.8100    0.0000 H       1  UNL1        0.0274
     47 H           2.8660   -5.4300    0.0000 H       1  UNL1        0.0274
     48 H           3.4860   -4.8100    0.0000 H       1  UNL1        0.0274
     49 H           2.3100   -2.7731    0.0000 H       1  UNL1        0.0274
     50 H           1.4631   -3.0000    0.0000 H       1  UNL1        0.0274
     51 H           1.6900   -3.8469    0.0000 H       1  UNL1        0.0274
     52 H           8.0622    4.8100    0.0000 H       1  UNL1        0.2954
@<TRIPOS>BOND
     1     1    10    1
     2     1    44    1
     3     2    11    1
     4     2    45    1
     5     3    20    1
     6     3    52    1
     7     4    20    2
     8     5     7    1
     9     5     9   ar
    10     5    12   ar
    11     6     8    1
    12     6    10   ar
    13     6    11   ar
    14     7    15    1
    15     7    25    1
    16     7    26    1
    17     8    16    1
    18     8    27    1
    19     8    28    1
    20     9    10   ar
    21     9    20    1
    22    11    12   ar
    23    12    29    1
    24    13    14    1
    25    13    16    2
    26    13    18    1
    27    14    17    1
    28    14    30    1
    29    14    31    1
    30    15    19    1
    31    15    32    1
    32    15    33    1
    33    16    34    1
    34    17    21    1
    35    17    35    1
    36    17    36    1
    37    18    37    1
    38    18    38    1
    39    18    39    1
    40    19    40    1
    41    19    41    1
    42    19    42    1
    43    21    22    2
    44    21    43    1
    45    22    23    1
    46    22    24    1
    47    23    46    1
    48    23    47    1
    49    23    48    1
    50    24    49    1
    51    24    50    1
    52    24    51    1
