@<TRIPOS>MOLECULE
IMPHY010168
 48 52 0 0 0
SMALL
GASTEIGER

@<TRIPOS>ATOM
      1 O           2.5836    1.0922    0.0000 O.3     1  UNL1       -0.4518
      2 O           9.4742   -2.1599    0.0000 O.3     1  UNL1       -0.4526
      3 O           7.8994   -2.4918    0.0000 O.3     1  UNL1       -0.4526
      4 O           2.5836    2.7016    0.0000 O.3     1  UNL1       -0.4526
      5 O           3.9372   -0.8192    0.0000 O.2     1  UNL1       -0.2697
      6 N           5.5938   -0.1780    0.0000 N.am    1  UNL1       -0.2808
      7 N          10.5808    0.8104    0.0000 N.3     1  UNL1       -0.3080
      8 C           8.6238    0.3980    0.0000 C.ar    1  UNL1       -0.0353
      9 C           7.6452    0.1917    0.0000 C.ar    1  UNL1       -0.0164
     10 C           8.9344    1.3485    0.0000 C.3     1  UNL1       -0.0142
     11 C           5.2619    1.3969    0.0000 C.ar    1  UNL1        0.0121
     12 C           5.9989    0.7298    0.0000 C.2     1  UNL1        0.0423
     13 C           4.3958    0.8969    0.0000 C.ar    1  UNL1        0.0912
     14 C           6.9774    0.9360    0.0000 C.2     1  UNL1       -0.0323
     15 C           9.9129    1.5547    0.0000 C.3     1  UNL1        0.0023
     16 C           3.5298    1.3969    0.0000 C.ar    1  UNL1        0.1789
     17 C           9.2916   -0.3463    0.0000 C.ar    1  UNL1       -0.0124
     18 C           7.3346   -0.7588    0.0000 C.ar    1  UNL1       -0.0087
     19 C           8.9809   -1.2969    0.0000 C.ar    1  UNL1        0.1665
     20 C           4.6051   -0.0749    0.0000 C.2     1  UNL1        0.2526
     21 C           8.0024   -1.5031    0.0000 C.ar    1  UNL1        0.1668
     22 C           5.2619    2.3969    0.0000 C.ar    1  UNL1       -0.0484
     23 C           3.5298    2.3969    0.0000 C.ar    1  UNL1        0.1670
     24 C           4.3958    2.8969    0.0000 C.ar    1  UNL1       -0.0155
     25 C           2.0000    1.8969    0.0000 C.3     1  UNL1        0.2333
     26 C           8.8072   -2.8969    0.0000 C.3     1  UNL1        0.2332
     27 C          11.5593    1.0166    0.0000 C.3     1  UNL1       -0.0130
     28 C          10.2701   -0.1401    0.0000 C.3     1  UNL1       -0.0130
     29 H           8.9138    1.9681    0.0000 H       1  UNL1        0.0326
     30 H           8.3206    1.4358    0.0000 H       1  UNL1        0.0326
     31 H          10.4393    1.8823    0.0000 H       1  UNL1        0.0429
     32 H           9.6817    2.1300    0.0000 H       1  UNL1        0.0429
     33 H           7.1700    1.5254    0.0000 H       1  UNL1        0.0642
     34 H           9.8983   -0.2185    0.0000 H       1  UNL1        0.0658
     35 H           6.7279   -0.8866    0.0000 H       1  UNL1        0.0661
     36 H           5.9038   -0.7149    0.0000 H       1  UNL1        0.1552
     37 H           5.7988    2.7069    0.0000 H       1  UNL1        0.0625
     38 H           4.3958    3.5169    0.0000 H       1  UNL1        0.0655
     39 H           1.5391    2.3116    0.0000 H       1  UNL1        0.1166
     40 H           1.5391    1.4822    0.0000 H       1  UNL1        0.1166
     41 H           8.4964   -3.4334    0.0000 H       1  UNL1        0.1166
     42 H           9.3080   -3.2624    0.0000 H       1  UNL1        0.1166
     43 H          11.6871    0.4099    0.0000 H       1  UNL1        0.0391
     44 H           9.6808    0.0525    0.0000 H       1  UNL1        0.0391
     45 H          10.0775   -0.7294    0.0000 H       1  UNL1        0.0391
     46 H          10.8594   -0.3327    0.0000 H       1  UNL1        0.0391
     47 H          12.1659    1.1445    0.0000 H       1  UNL1        0.0391
     48 H          11.4314    1.6233    0.0000 H       1  UNL1        0.0391
@<TRIPOS>BOND
     1     1    16    1
     2     1    25    1
     3     2    19    1
     4     2    26    1
     5     3    21    1
     6     3    26    1
     7     4    23    1
     8     4    25    1
     9     5    20    2
    10     6    12    1
    11     6    20   am
    12     6    36    1
    13     7    15    1
    14     7    27    1
    15     7    28    1
    16     8     9   ar
    17     8    10    1
    18     8    17   ar
    19     9    14    1
    20     9    18   ar
    21    10    15    1
    22    10    29    1
    23    10    30    1
    24    11    12    1
    25    11    13   ar
    26    11    22   ar
    27    12    14    2
    28    13    16   ar
    29    13    20    1
    30    14    33    1
    31    15    31    1
    32    15    32    1
    33    16    23   ar
    34    17    19   ar
    35    17    34    1
    36    18    21   ar
    37    18    35    1
    38    19    21   ar
    39    22    24   ar
    40    22    37    1
    41    23    24   ar
    42    24    38    1
    43    25    39    1
    44    25    40    1
    45    26    41    1
    46    26    42    1
    47    27    43    1
    48    27    47    1
    49    27    48    1
    50    28    44    1
    51    28    45    1
    52    28    46    1
