@<TRIPOS>MOLECULE
IMPHY006408
 47 46 0 0 0
SMALL
GASTEIGER

@<TRIPOS>ATOM
      1 SI         10.6603   -0.1230    0.0000 Si      1  UNL1        0.0000
      2 O           9.7942   -0.6230    0.0000 O.3     1  UNL1        0.0000
      3 O           2.8660   -0.6230    0.0000 O.3     1  UNL1        0.0000
      4 O           3.7320    0.8770    0.0000 O.2     1  UNL1        0.0000
      5 C          11.5263    0.3770    0.0000 C.3     1  UNL1        0.0000
      6 C          12.3923    0.8770    0.0000 C.3     1  UNL1        0.0000
      7 C          11.0263    1.2430    0.0000 C.3     1  UNL1        0.0000
      8 C          12.0263   -0.4890    0.0000 C.3     1  UNL1        0.0000
      9 C          10.1603    0.7430    0.0000 C.3     1  UNL1        0.0000
     10 C          11.1603   -0.9890    0.0000 C.3     1  UNL1        0.0000
     11 C           8.9282   -0.1230    0.0000 C.3     1  UNL1        0.0000
     12 C           8.0622   -0.6230    0.0000 C.3     1  UNL1        0.0000
     13 C           8.9282    0.8770    0.0000 C.3     1  UNL1        0.0000
     14 C           7.1962   -0.1230    0.0000 C.2     1  UNL1        0.0000
     15 C           6.3301   -0.6230    0.0000 C.2     1  UNL1        0.0000
     16 C           5.4641   -0.1230    0.0000 C.2     1  UNL1        0.0000
     17 C           4.5981   -0.6230    0.0000 C.2     1  UNL1        0.0000
     18 C           3.7320   -0.1230    0.0000 C.2     1  UNL1        0.0000
     19 C           2.0000   -0.1230    0.0000 C.3     1  UNL1        0.0000
     20 H          12.7023    0.3401    0.0000 H       1  UNL1        0.0000
     21 H          12.9292    1.1870    0.0000 H       1  UNL1        0.0000
     22 H          12.0823    1.4139    0.0000 H       1  UNL1        0.0000
     23 H          11.5632    1.5530    0.0000 H       1  UNL1        0.0000
     24 H          10.7163    1.7800    0.0000 H       1  UNL1        0.0000
     25 H          10.4893    0.9330    0.0000 H       1  UNL1        0.0000
     26 H          11.4893   -0.7990    0.0000 H       1  UNL1        0.0000
     27 H          12.3363   -1.0260    0.0000 H       1  UNL1        0.0000
     28 H          12.5632   -0.1790    0.0000 H       1  UNL1        0.0000
     29 H          10.6972    1.0530    0.0000 H       1  UNL1        0.0000
     30 H           9.8503    1.2800    0.0000 H       1  UNL1        0.0000
     31 H           9.6233    0.4330    0.0000 H       1  UNL1        0.0000
     32 H          10.6233   -1.2990    0.0000 H       1  UNL1        0.0000
     33 H          11.4703   -1.5260    0.0000 H       1  UNL1        0.0000
     34 H          11.6972   -0.6790    0.0000 H       1  UNL1        0.0000
     35 H           9.4651    0.1870    0.0000 H       1  UNL1        0.0000
     36 H           7.6636   -1.0980    0.0000 H       1  UNL1        0.0000
     37 H           8.4607   -1.0980    0.0000 H       1  UNL1        0.0000
     38 H           9.5482    0.8770    0.0000 H       1  UNL1        0.0000
     39 H           8.9282    1.4970    0.0000 H       1  UNL1        0.0000
     40 H           8.3082    0.8770    0.0000 H       1  UNL1        0.0000
     41 H           7.1962    0.4970    0.0000 H       1  UNL1        0.0000
     42 H           6.3301   -1.2430    0.0000 H       1  UNL1        0.0000
     43 H           5.4641    0.4970    0.0000 H       1  UNL1        0.0000
     44 H           4.5981   -1.2430    0.0000 H       1  UNL1        0.0000
     45 H           2.3100    0.4139    0.0000 H       1  UNL1        0.0000
     46 H           1.4631    0.1870    0.0000 H       1  UNL1        0.0000
     47 H           1.6900   -0.6599    0.0000 H       1  UNL1        0.0000
@<TRIPOS>BOND
     1     1     2    1
     2     1     5    1
     3     1     9    1
     4     1    10    1
     5     2    11    1
     6     3    18    1
     7     3    19    1
     8     4    18    2
     9     5     6    1
    10     5     7    1
    11     5     8    1
    12     6    20    1
    13     6    21    1
    14     6    22    1
    15     7    23    1
    16     7    24    1
    17     7    25    1
    18     8    26    1
    19     8    27    1
    20     8    28    1
    21     9    29    1
    22     9    30    1
    23     9    31    1
    24    10    32    1
    25    10    33    1
    26    10    34    1
    27    11    12    1
    28    11    13    1
    29    11    35    1
    30    12    14    1
    31    12    36    1
    32    12    37    1
    33    13    38    1
    34    13    39    1
    35    13    40    1
    36    14    15    2
    37    14    41    1
    38    15    16    1
    39    15    42    1
    40    16    17    2
    41    16    43    1
    42    17    18    1
    43    17    44    1
    44    19    45    1
    45    19    46    1
    46    19    47    1
