@<TRIPOS>MOLECULE
IMPHY015012
 196 206 0 0 0
SMALL
GASTEIGER

@<TRIPOS>ATOM
      1 O          19.9689    4.9378    0.0000 O.3     1  UNL1       -0.3915
      2 O          23.6099    3.8928    0.0000 O.3     1  UNL1       -0.3423
      3 O          23.5777    1.8013    0.0000 O.3     1  UNL1       -0.3892
      4 O          21.8094    5.6846    0.0000 O.3     1  UNL1       -0.3944
      5 O          14.6613    0.8751    0.0000 O.3     1  UNL1       -0.4318
      6 O          15.5273    2.3752    0.0000 O.2     1  UNL1       -0.2501
      7 O          24.4585    2.3828    0.0000 O.3     1  UNL1       -0.3405
      8 O          25.3534    4.8726    0.0000 O.3     1  UNL1       -0.3841
      9 O          13.7953    2.3752    0.0000 O.3     1  UNL1       -0.3368
     10 O          27.0738    3.8527    0.0000 O.3     1  UNL1       -0.3864
     11 O          27.0507    1.8528    0.0000 O.3     1  UNL1       -0.3865
     12 O          12.9292   -0.1249    0.0000 O.3     1  UNL1       -0.3366
     13 O          11.1972    0.8751    0.0000 O.3     1  UNL1       -0.3864
     14 O          24.4354    0.3830    0.0000 O.3     1  UNL1       -0.3924
     15 O          11.1972    2.8752    0.0000 O.3     1  UNL1       -0.3869
     16 O          11.1972   -0.1249    0.0000 O.3     1  UNL1       -0.3431
     17 O          12.9292   -2.1248    0.0000 O.3     1  UNL1       -0.3841
     18 O          11.1972   -3.1248    0.0000 O.3     1  UNL1       -0.3400
     19 O           9.4651   -2.1248    0.0000 O.3     1  UNL1       -0.3402
     20 O           9.4176   -3.2181    0.0000 O.3     1  UNL1       -0.3457
     21 O           8.5991   -0.6249    0.0000 O.3     1  UNL1       -0.3461
     22 O          10.9698   -5.2885    0.0000 O.3     1  UNL1       -0.3837
     23 O           9.4564   -5.8054    0.0000 O.3     1  UNL1       -0.3812
     24 O           7.7331   -3.1248    0.0000 O.3     1  UNL1       -0.3841
     25 O           6.0010   -2.1248    0.0000 O.3     1  UNL1       -0.3401
     26 O           7.5164   -4.8273    0.0000 O.3     1  UNL1       -0.3920
     27 O           6.0010   -0.1249    0.0000 O.3     1  UNL1       -0.3868
     28 O           5.1350   -0.6249    0.0000 O.3     1  UNL1       -0.3431
     29 O           4.2690   -3.1248    0.0000 O.3     1  UNL1       -0.3841
     30 O           2.5369   -2.1248    0.0000 O.3     1  UNL1       -0.3864
     31 O           2.5369   -0.1249    0.0000 O.3     1  UNL1       -0.3866
     32 C          19.0710    2.3754    0.0000 C.3     1  UNL1       -0.0170
     33 C          20.8470    2.3685    0.0000 C.3     1  UNL1       -0.0202
     34 C          19.9332    1.8687    0.0000 C.3     1  UNL1       -0.0255
     35 C          18.2012    1.8820    0.0000 C.3     1  UNL1       -0.0050
     36 C          20.8631    3.4100    0.0000 C.3     1  UNL1        0.0007
     37 C          19.0630    3.4170    0.0000 C.3     1  UNL1       -0.0201
     38 C          19.9651    3.9378    0.0000 C.3     1  UNL1        0.0597
     39 C          21.8027    3.9525    0.0000 C.3     1  UNL1        0.0254
     40 C          18.1935    0.8821    0.0000 C.2     1  UNL1       -0.0629
     41 C          21.7695    1.7973    0.0000 C.3     1  UNL1       -0.0183
     42 C          19.9255    0.8687    0.0000 C.3     1  UNL1       -0.0306
     43 C          17.2954    0.3543    0.0000 C.3     1  UNL1       -0.0031
     44 C          17.3114    2.4236    0.0000 C.3     1  UNL1       -0.0424
     45 C          16.3933    0.8751    0.0000 C.3     1  UNL1        0.0744
     46 C          22.7382    3.4028    0.0000 C.3     1  UNL1        0.0954
     47 C          18.4342    3.1463    0.0000 C.3     1  UNL1       -0.0584
     48 C          22.7214    2.3179    0.0000 C.3     1  UNL1        0.0825
     49 C          16.4014    1.9168    0.0000 C.3     1  UNL1       -0.0359
     50 C          20.8316    1.3686    0.0000 C.3     1  UNL1       -0.0588
     51 C          19.0556    0.3754    0.0000 C.2     1  UNL1       -0.0836
     52 C          17.8664    2.8244    0.0000 C.3     1  UNL1       -0.0553
     53 C          17.3121   -0.7305    0.0000 C.3     1  UNL1       -0.0403
     54 C          15.4455    0.3472    0.0000 C.3     1  UNL1       -0.0362
     55 C          22.3061    4.8166    0.0000 C.3     1  UNL1        0.0524
     56 C          16.3767   -1.2803    0.0000 C.3     1  UNL1       -0.0343
     57 C          21.3061    4.8205    0.0000 C.3     1  UNL1       -0.0547
     58 C          15.4371   -0.7378    0.0000 C.3     1  UNL1       -0.0468
     59 C          15.5273    1.3752    0.0000 C.2     1  UNL1        0.3161
     60 C          16.8801   -2.1444    0.0000 C.3     1  UNL1       -0.0598
     61 C          15.8801   -2.1482    0.0000 C.3     1  UNL1       -0.0598
     62 C          24.4701    3.3828    0.0000 C.3     1  UNL1        0.1883
     63 C          25.3418    3.8727    0.0000 C.3     1  UNL1        0.1341
     64 C          13.7953    1.3752    0.0000 C.3     1  UNL1        0.2338
     65 C          26.2020    3.3627    0.0000 C.3     1  UNL1        0.1141
     66 C          25.3187    1.8729    0.0000 C.3     1  UNL1        0.1130
     67 C          26.1905    2.3628    0.0000 C.3     1  UNL1        0.1119
     68 C          12.9292    0.8751    0.0000 C.3     1  UNL1        0.1520
     69 C          12.0632    1.3752    0.0000 C.3     1  UNL1        0.1152
     70 C          25.3072    0.8729    0.0000 C.3     1  UNL1        0.0730
     71 C          12.9292    2.8752    0.0000 C.3     1  UNL1        0.0802
     72 C          12.0632    2.3752    0.0000 C.3     1  UNL1        0.1070
     73 C          12.0632   -0.6249    0.0000 C.3     1  UNL1        0.1885
     74 C          12.0632   -1.6248    0.0000 C.3     1  UNL1        0.1345
     75 C          11.1972   -2.1248    0.0000 C.3     1  UNL1        0.1209
     76 C          10.3312   -0.6249    0.0000 C.3     1  UNL1        0.0877
     77 C          10.3312   -1.6248    0.0000 C.3     1  UNL1        0.1164
     78 C           9.4651   -0.1249    0.0000 C.3     1  UNL1       -0.0360
     79 C          10.3312   -3.6248    0.0000 C.3     1  UNL1        0.1884
     80 C           8.5991   -1.6248    0.0000 C.3     1  UNL1        0.1880
     81 C          10.2266   -4.6194    0.0000 C.3     1  UNL1        0.1387
     82 C           9.2485   -4.8273    0.0000 C.3     1  UNL1        0.1425
     83 C           7.7331   -2.1248    0.0000 C.3     1  UNL1        0.1345
     84 C           8.7485   -3.9613    0.0000 C.3     1  UNL1        0.0843
     85 C           6.8671   -1.6248    0.0000 C.3     1  UNL1        0.1202
     86 C           7.7331   -0.1249    0.0000 C.3     1  UNL1        0.0792
     87 C           8.3825   -5.3273    0.0000 C.3     1  UNL1        0.0778
     88 C           6.8671   -0.6249    0.0000 C.3     1  UNL1        0.1073
     89 C           5.1350   -1.6248    0.0000 C.3     1  UNL1        0.1883
     90 C           4.2690   -2.1248    0.0000 C.3     1  UNL1        0.1341
     91 C           3.4030   -1.6248    0.0000 C.3     1  UNL1        0.1140
     92 C           4.2690   -0.1249    0.0000 C.3     1  UNL1        0.0873
     93 C           3.4030   -0.6249    0.0000 C.3     1  UNL1        0.1095
     94 C           4.2690    0.8751    0.0000 C.3     1  UNL1       -0.0361
     95 H          20.4653    1.5505    0.0000 H       1  UNL1        0.0315
     96 H          20.8655    4.0300    0.0000 H       1  UNL1        0.0338
     97 H          18.8494    3.9990    0.0000 H       1  UNL1        0.0296
     98 H          18.4530    3.3062    0.0000 H       1  UNL1        0.0296
     99 H          19.4287    4.2488    0.0000 H       1  UNL1        0.0596
    100 H          21.3577    1.3338    0.0000 H       1  UNL1        0.0296
    101 H          22.1557    1.3123    0.0000 H       1  UNL1        0.0296
    102 H          20.1330    0.2845    0.0000 H       1  UNL1        0.0310
    103 H          20.5368    0.9717    0.0000 H       1  UNL1        0.0310
    104 H          18.0364   -0.0621    0.0000 H       1  UNL1        0.0357
    105 H          17.7196    2.8902    0.0000 H       1  UNL1        0.0274
    106 H          16.9215    2.9056    0.0000 H       1  UNL1        0.0274
    107 H          22.7441    4.0228    0.0000 H       1  UNL1        0.0629
    108 H          18.9122    3.5412    0.0000 H       1  UNL1        0.0235
    109 H          18.0393    3.6244    0.0000 H       1  UNL1        0.0235
    110 H          17.9562    2.7515    0.0000 H       1  UNL1        0.0235
    111 H          23.2637    2.6186    0.0000 H       1  UNL1        0.0619
    112 H          16.1968    2.5020    0.0000 H       1  UNL1        0.0276
    113 H          15.7897    1.8154    0.0000 H       1  UNL1        0.0276
    114 H          20.2117    1.3782    0.0000 H       1  UNL1        0.0235
    115 H          20.8221    0.7487    0.0000 H       1  UNL1        0.0235
    116 H          21.4516    1.3591    0.0000 H       1  UNL1        0.0235
    117 H          19.0508   -0.2446    0.0000 H       1  UNL1        0.0572
    118 H          18.4506    3.0319    0.0000 H       1  UNL1        0.0238
    119 H          17.6588    3.4086    0.0000 H       1  UNL1        0.0238
    120 H          17.2822    2.6168    0.0000 H       1  UNL1        0.0238
    121 H          17.5302   -1.3109    0.0000 H       1  UNL1        0.0276
    122 H          17.9213   -0.6150    0.0000 H       1  UNL1        0.0276
    123 H          15.2409    0.9325    0.0000 H       1  UNL1        0.0276
    124 H          14.8338    0.2458    0.0000 H       1  UNL1        0.0276
    125 H          22.7795    4.4163    0.0000 H       1  UNL1        0.0563
    126 H          22.7826    5.2133    0.0000 H       1  UNL1        0.0563
    127 H          21.8442    5.1284    0.0000 H       1  UNL1        0.0237
    128 H          20.9982    5.3586    0.0000 H       1  UNL1        0.0237
    129 H          20.7680    4.5125    0.0000 H       1  UNL1        0.0237
    130 H          14.8271   -0.6270    0.0000 H       1  UNL1        0.0271
    131 H          15.2235   -1.3198    0.0000 H       1  UNL1        0.0271
    132 H          19.4332    5.2498    0.0000 H       1  UNL1        0.2098
    133 H          23.5657    1.1814    0.0000 H       1  UNL1        0.2099
    134 H          16.3443   -2.4564    0.0000 H       1  UNL1        0.0235
    135 H          17.1921   -2.6801    0.0000 H       1  UNL1        0.0235
    136 H          17.4158   -1.8323    0.0000 H       1  UNL1        0.0235
    137 H          15.3419   -1.8403    0.0000 H       1  UNL1        0.0235
    138 H          15.5721   -2.6863    0.0000 H       1  UNL1        0.0235
    139 H          16.4182   -2.4561    0.0000 H       1  UNL1        0.0235
    140 H          24.4773    4.0027    0.0000 H       1  UNL1        0.0938
    141 H          22.1215    6.2203    0.0000 H       1  UNL1        0.2094
    142 H          25.8823    4.1765    0.0000 H       1  UNL1        0.0671
    143 H          13.7953    0.7551    0.0000 H       1  UNL1        0.1085
    144 H          26.7353    3.0466    0.0000 H       1  UNL1        0.0648
    145 H          24.7782    1.5691    0.0000 H       1  UNL1        0.0647
    146 H          26.1833    1.7428    0.0000 H       1  UNL1        0.0647
    147 H          12.3923    0.5651    0.0000 H       1  UNL1        0.0687
    148 H          25.8939    5.1764    0.0000 H       1  UNL1        0.2101
    149 H          11.5263    1.6852    0.0000 H       1  UNL1        0.0648
    150 H          25.5125    0.2879    0.0000 H       1  UNL1        0.0584
    151 H          25.9189    0.9735    0.0000 H       1  UNL1        0.0584
    152 H          27.6071    3.5365    0.0000 H       1  UNL1        0.2100
    153 H          13.3278    3.3501    0.0000 H       1  UNL1        0.0588
    154 H          12.5307    3.3501    0.0000 H       1  UNL1        0.0588
    155 H          12.0632    2.9952    0.0000 H       1  UNL1        0.0643
    156 H          27.0435    1.2329    0.0000 H       1  UNL1        0.2100
    157 H          12.6002   -0.9349    0.0000 H       1  UNL1        0.0938
    158 H          10.6603    1.1852    0.0000 H       1  UNL1        0.2100
    159 H          24.4282   -0.2370    0.0000 H       1  UNL1        0.2095
    160 H          11.1972    3.4952    0.0000 H       1  UNL1        0.2100
    161 H          12.0632   -2.2448    0.0000 H       1  UNL1        0.0671
    162 H          10.6603   -2.4348    0.0000 H       1  UNL1        0.0651
    163 H          10.3312   -0.0049    0.0000 H       1  UNL1        0.0621
    164 H           9.7942   -1.3148    0.0000 H       1  UNL1        0.0650
    165 H          13.4662   -1.8148    0.0000 H       1  UNL1        0.2101
    166 H           9.7751    0.4121    0.0000 H       1  UNL1        0.0255
    167 H           8.9282    0.1851    0.0000 H       1  UNL1        0.0255
    168 H           9.1551   -0.6618    0.0000 H       1  UNL1        0.0255
    169 H          10.2987   -3.0057    0.0000 H       1  UNL1        0.0938
    170 H           8.5991   -2.2448    0.0000 H       1  UNL1        0.0937
    171 H          10.0662   -5.2182    0.0000 H       1  UNL1        0.0675
    172 H           7.1962   -2.4348    0.0000 H       1  UNL1        0.0671
    173 H           8.3336   -3.5005    0.0000 H       1  UNL1        0.0591
    174 H           8.2469   -4.3257    0.0000 H       1  UNL1        0.0591
    175 H           6.3301   -1.3148    0.0000 H       1  UNL1        0.0651
    176 H           8.1316    0.3501    0.0000 H       1  UNL1        0.0587
    177 H           7.3346    0.3501    0.0000 H       1  UNL1        0.0587
    178 H           7.9839   -5.8022    0.0000 H       1  UNL1        0.0587
    179 H           8.7810   -5.8022    0.0000 H       1  UNL1        0.0587
    180 H           6.8671   -0.0049    0.0000 H       1  UNL1        0.0643
    181 H          10.8409   -5.8950    0.0000 H       1  UNL1        0.2101
    182 H           8.9956   -6.2203    0.0000 H       1  UNL1        0.2105
    183 H           7.1962   -3.4348    0.0000 H       1  UNL1        0.2101
    184 H           6.9795   -5.1373    0.0000 H       1  UNL1        0.2095
    185 H           6.0010    0.4951    0.0000 H       1  UNL1        0.2100
    186 H           5.1350   -2.2448    0.0000 H       1  UNL1        0.0938
    187 H           3.7320   -2.4348    0.0000 H       1  UNL1        0.0671
    188 H           2.8660   -1.3148    0.0000 H       1  UNL1        0.0648
    189 H           4.8059    0.1851    0.0000 H       1  UNL1        0.0621
    190 H           3.4030   -0.0049    0.0000 H       1  UNL1        0.0646
    191 H           3.7320   -3.4348    0.0000 H       1  UNL1        0.2101
    192 H           4.8890    0.8751    0.0000 H       1  UNL1        0.0255
    193 H           4.2690    1.4952    0.0000 H       1  UNL1        0.0255
    194 H           3.6490    0.8751    0.0000 H       1  UNL1        0.0255
    195 H           2.0000   -1.8148    0.0000 H       1  UNL1        0.2100
    196 H           2.5369    0.4951    0.0000 H       1  UNL1        0.2100
@<TRIPOS>BOND
     1     1    38    1
     2     1   132    1
     3    46     2    1
     4    62     2    1
     5    48     3    1
     6     3   133    1
     7     4    55    1
     8     4   141    1
     9     5    59    1
    10    64     5    1
    11     6    59    2
    12     7    62    1
    13     7    66    1
    14    63     8    1
    15     8   148    1
    16     9    64    1
    17     9    71    1
    18    65    10    1
    19    10   152    1
    20    67    11    1
    21    11   156    1
    22    68    12    1
    23    73    12    1
    24    69    13    1
    25    13   158    1
    26    14    70    1
    27    14   159    1
    28    72    15    1
    29    15   160    1
    30    16    73    1
    31    16    76    1
    32    74    17    1
    33    17   165    1
    34    75    18    1
    35    79    18    1
    36    77    19    1
    37    80    19    1
    38    20    79    1
    39    20    84    1
    40    21    80    1
    41    21    86    1
    42    81    22    1
    43    22   181    1
    44    82    23    1
    45    23   182    1
    46    83    24    1
    47    24   183    1
    48    85    25    1
    49    89    25    1
    50    26    87    1
    51    26   184    1
    52    88    27    1
    53    27   185    1
    54    28    89    1
    55    28    92    1
    56    90    29    1
    57    29   191    1
    58    91    30    1
    59    30   195    1
    60    93    31    1
    61    31   196    1
    62    32    34    1
    63    32    35    1
    64    32    37    1
    65    32    47    1
    66    33    34    1
    67    33    36    1
    68    33    41    1
    69    33    50    1
    70    34    42    1
    71    34    95    1
    72    35    40    1
    73    35    44    1
    74    35    52    1
    75    36    38    1
    76    36    39    1
    77    36    96    1
    78    37    38    1
    79    37    97    1
    80    37    98    1
    81    38    99    1
    82    39    46    1
    83    39    55    1
    84    39    57    1
    85    40    43    1
    86    40    51    2
    87    41    48    1
    88    41   100    1
    89    41   101    1
    90    42    51    1
    91    42   102    1
    92    42   103    1
    93    43    45    1
    94    43    53    1
    95    43   104    1
    96    44    49    1
    97    44   105    1
    98    44   106    1
    99    45    49    1
   100    45    54    1
   101    45    59    1
   102    46    48    1
   103    46   107    1
   104    47   108    1
   105    47   109    1
   106    47   110    1
   107    48   111    1
   108    49   112    1
   109    49   113    1
   110    50   114    1
   111    50   115    1
   112    50   116    1
   113    51   117    1
   114    52   118    1
   115    52   119    1
   116    52   120    1
   117    53    56    1
   118    53   121    1
   119    53   122    1
   120    54    58    1
   121    54   123    1
   122    54   124    1
   123    55   125    1
   124    55   126    1
   125    56    58    1
   126    56    60    1
   127    56    61    1
   128    57   127    1
   129    57   128    1
   130    57   129    1
   131    58   130    1
   132    58   131    1
   133    60   134    1
   134    60   135    1
   135    60   136    1
   136    61   137    1
   137    61   138    1
   138    61   139    1
   139    62    63    1
   140    62   140    1
   141    63    65    1
   142    63   142    1
   143    64    68    1
   144    64   143    1
   145    65    67    1
   146    65   144    1
   147    66    67    1
   148    66    70    1
   149    66   145    1
   150    67   146    1
   151    68    69    1
   152    68   147    1
   153    69    72    1
   154    69   149    1
   155    70   150    1
   156    70   151    1
   157    71    72    1
   158    71   153    1
   159    71   154    1
   160    72   155    1
   161    73    74    1
   162    73   157    1
   163    74    75    1
   164    74   161    1
   165    75    77    1
   166    75   162    1
   167    76    77    1
   168    76    78    1
   169    76   163    1
   170    77   164    1
   171    78   166    1
   172    78   167    1
   173    78   168    1
   174    79    81    1
   175    79   169    1
   176    80    83    1
   177    80   170    1
   178    81    82    1
   179    81   171    1
   180    82    84    1
   181    82    87    1
   182    83    85    1
   183    83   172    1
   184    84   173    1
   185    84   174    1
   186    85    88    1
   187    85   175    1
   188    86    88    1
   189    86   176    1
   190    86   177    1
   191    87   178    1
   192    87   179    1
   193    88   180    1
   194    89    90    1
   195    89   186    1
   196    90    91    1
   197    90   187    1
   198    91    93    1
   199    91   188    1
   200    92    93    1
   201    92    94    1
   202    92   189    1
   203    93   190    1
   204    94   192    1
   205    94   193    1
   206    94   194    1
