@<TRIPOS>MOLECULE
IMPHY002388
 28 32 0 0 0
SMALL
GASTEIGER

@<TRIPOS>ATOM
      1 C          26.2423    2.4492    0.0000 C.ar    1  UNL1        0.1720
      2 C          26.2423    1.8492    0.0000 C.ar    1  UNL1        0.1682
      3 C          26.7619    1.5492    0.0000 C.ar    1  UNL1        0.0143
      4 C          27.2816    1.8492    0.0000 C.ar    1  UNL1        0.0038
      5 C          27.2816    2.4492    0.0000 C.ar    1  UNL1        0.0011
      6 C          26.7619    2.7492    0.0000 C.ar    1  UNL1        0.0398
      7 C          26.7619    0.9492    0.0000 C.3     1  UNL1        0.0469
      8 C          27.2816    0.6492    0.0000 C.3     1  UNL1        0.1022
      9 C          27.8012    0.9492    0.0000 C.3     1  UNL1        0.0541
     10 C          27.8012    1.5492    0.0000 C.3     1  UNL1        0.1412
     11 C          26.2423    0.6492    0.0000 C.3     1  UNL1        0.0728
     12 C          26.2423    0.0492    0.0000 C.2     1  UNL1        0.1828
     13 C          26.7619   -0.2508    0.0000 C.3     1  UNL1        0.2247
     14 C          27.2816    0.0492    0.0000 C.3     1  UNL1        0.2322
     15 O          25.7227    1.5492    0.0000 O.3     1  UNL1       -0.4687
     16 C          25.2031    1.8492    0.0000 C.3     1  UNL1        0.2526
     17 O          25.7227    2.7492    0.0000 O.3     1  UNL1       -0.4684
     18 C          25.2031    2.4492    0.0000 C.3     1  UNL1        0.2526
     19 O          25.7227   -0.2508    0.0000 O.2     1  UNL1       -0.2933
     20 O          26.7619   -0.8508    0.0000 O.3     1  UNL1       -0.3416
     21 O          26.7619    0.3492    0.0000 O.3     1  UNL1       -0.3289
     22 N          28.1137    0.5367    0.0000 N.3     1  UNL1       -0.2694
     23 C          27.2816    1.2492    0.0000 C.3     1  UNL1        0.0233
     24 O          27.8012   -0.2508    0.0000 O.3     1  UNL1       -0.3283
     25 C          27.8012   -0.8508    0.0000 C.3     1  UNL1        0.1768
     26 C          27.2816   -1.1508    0.0000 C.3     1  UNL1        0.1748
     27 C          28.1137    1.2455    0.0000 C.3     1  UNL1        0.0726
     28 C          28.4137    0.0170    0.0000 C.3     1  UNL1        0.0897
@<TRIPOS>BOND
     1     1     2   ar
     2     1    17    1
     3     2     3   ar
     4     2    15    1
     5     3     4   ar
     6     4     5   ar
     7     5     6   ar
     8     6     1   ar
     9     7     3    1
    10     7     8    1
    11     7    11    1
    12     7    23    1
    13     8     9    1
    14     8    22    1
    15    10     4    1
    16    10     9    1
    17    10    21    1
    18    11    12    1
    19    12    13    1
    20    12    19    2
    21    13    14    1
    22    13    20    1
    23    14     8    1
    24    14    21    1
    25    14    24    1
    26    15    16    1
    27    17    18    1
    28    20    26    1
    29    22    27    1
    30    22    28    1
    31    23    27    1
    32    24    25    1
