@<TRIPOS>MOLECULE
IMPHY002990
 58 62 0 0 0
SMALL
GASTEIGER

@<TRIPOS>ATOM
      1 O           6.3507    0.1737    0.0000 O.3     1  UNL1       -0.4765
      2 O           5.0417   -1.9530    0.0000 O.3     1  UNL1       -0.3768
      3 O           5.5739   -3.1198    0.0000 O.3     1  UNL1       -0.3884
      4 O           3.7283   -1.9642    0.0000 O.3     1  UNL1       -0.4945
      5 O           2.9789    1.4954    0.0000 O.3     1  UNL1       -0.4949
      6 O           8.2866    2.8768    0.0000 O.3     1  UNL1       -0.4951
      7 C           6.6597   -0.7774    0.0000 C.3     1  UNL1        0.1774
      8 C           5.8507   -1.3652    0.0000 C.3     1  UNL1        0.1674
      9 C           7.4624   -1.3638    0.0000 C.3     1  UNL1        0.0339
     10 C           6.1603   -2.3098    0.0000 C.3     1  UNL1        0.0931
     11 C           7.1544   -2.3090    0.0000 C.3     1  UNL1       -0.0127
     12 C           5.0417   -0.7774    0.0000 C.ar    1  UNL1        0.0740
     13 C           7.0664    0.1361    0.0000 C.ar    1  UNL1       -0.0003
     14 C           5.3507    0.1737    0.0000 C.ar    1  UNL1        0.1351
     15 C           8.4402   -1.5734    0.0000 C.ar    1  UNL1       -0.0400
     16 C           4.0263   -1.0096    0.0000 C.ar    1  UNL1        0.1332
     17 C           8.0610    0.2407    0.0000 C.ar    1  UNL1       -0.0512
     18 C           6.4786    0.9452    0.0000 C.ar    1  UNL1       -0.0512
     19 C           4.6657    0.9584    0.0000 C.ar    1  UNL1        0.0224
     20 C           8.7476   -2.5250    0.0000 C.ar    1  UNL1       -0.0582
     21 C           9.1106   -0.8314    0.0000 C.ar    1  UNL1       -0.0582
     22 C           3.3233   -0.2410    0.0000 C.ar    1  UNL1        0.0224
     23 C           3.6452    0.7497    0.0000 C.ar    1  UNL1        0.1271
     24 C           8.4677    1.1542    0.0000 C.ar    1  UNL1       -0.0196
     25 C           6.8854    1.8587    0.0000 C.ar    1  UNL1       -0.0196
     26 C           9.7254   -2.7346    0.0000 C.ar    1  UNL1       -0.0615
     27 C          10.0884   -1.0410    0.0000 C.ar    1  UNL1       -0.0615
     28 C           7.8799    1.9632    0.0000 C.ar    1  UNL1        0.1201
     29 C          10.3958   -1.9926    0.0000 C.ar    1  UNL1       -0.0617
     30 C           2.7526   -2.1834    0.0000 C.3     1  UNL1        0.0788
     31 C           2.0000    1.2913    0.0000 C.3     1  UNL1        0.0788
     32 C           7.6989    3.6858    0.0000 C.3     1  UNL1        0.0788
     33 H           7.7717   -1.9011    0.0000 H       1  UNL1        0.0393
     34 H           5.5478   -2.2141    0.0000 H       1  UNL1        0.0627
     35 H           7.0898   -2.9256    0.0000 H       1  UNL1        0.0298
     36 H           7.7608   -2.4380    0.0000 H       1  UNL1        0.0298
     37 H           5.1065   -2.5696    0.0000 H       1  UNL1        0.2109
     38 H           5.8271   -3.6858    0.0000 H       1  UNL1        0.2099
     39 H           8.4254   -0.2609    0.0000 H       1  UNL1        0.0623
     40 H           5.8620    0.8804    0.0000 H       1  UNL1        0.0623
     41 H           4.8641    1.5458    0.0000 H       1  UNL1        0.0691
     42 H           8.3319   -2.9850    0.0000 H       1  UNL1        0.0620
     43 H           8.9200   -0.2414    0.0000 H       1  UNL1        0.0620
     44 H           2.7174   -0.3722    0.0000 H       1  UNL1        0.0691
     45 H           9.0843    1.2190    0.0000 H       1  UNL1        0.0654
     46 H           6.5210    2.3603    0.0000 H       1  UNL1        0.0654
     47 H           9.9159   -3.3246    0.0000 H       1  UNL1        0.0618
     48 H          10.5041   -0.5810    0.0000 H       1  UNL1        0.0618
     49 H          11.0020   -2.1226    0.0000 H       1  UNL1        0.0618
     50 H           2.6167   -1.5785    0.0000 H       1  UNL1        0.0660
     51 H           2.1477   -2.3193    0.0000 H       1  UNL1        0.0660
     52 H           2.8885   -2.7883    0.0000 H       1  UNL1        0.0660
     53 H           1.8734    1.8982    0.0000 H       1  UNL1        0.0660
     54 H           1.3931    1.1647    0.0000 H       1  UNL1        0.0660
     55 H           2.1266    0.6843    0.0000 H       1  UNL1        0.0660
     56 H           8.2004    4.0502    0.0000 H       1  UNL1        0.0660
     57 H           7.3344    4.1874    0.0000 H       1  UNL1        0.0660
     58 H           7.1973    3.3214    0.0000 H       1  UNL1        0.0660
@<TRIPOS>BOND
     1     1     7    1
     2     1    14    1
     3     8     2    1
     4     2    37    1
     5    10     3    1
     6     3    38    1
     7     4    16    1
     8     4    30    1
     9     5    23    1
    10     5    31    1
    11     6    28    1
    12     6    32    1
    13     7     8    1
    14     7     9    1
    15     7    13    1
    16     8    10    1
    17     8    12    1
    18     9    11    1
    19     9    15    1
    20     9    33    1
    21    10    11    1
    22    10    34    1
    23    11    35    1
    24    11    36    1
    25    12    14   ar
    26    12    16   ar
    27    13    17   ar
    28    13    18   ar
    29    14    19   ar
    30    15    20   ar
    31    15    21   ar
    32    16    22   ar
    33    17    24   ar
    34    17    39    1
    35    18    25   ar
    36    18    40    1
    37    19    23   ar
    38    19    41    1
    39    20    26   ar
    40    20    42    1
    41    21    27   ar
    42    21    43    1
    43    22    23   ar
    44    22    44    1
    45    24    28   ar
    46    24    45    1
    47    25    28   ar
    48    25    46    1
    49    26    29   ar
    50    26    47    1
    51    27    29   ar
    52    27    48    1
    53    29    49    1
    54    30    50    1
    55    30    51    1
    56    30    52    1
    57    31    53    1
    58    31    54    1
    59    31    55    1
    60    32    56    1
    61    32    57    1
    62    32    58    1
