@<TRIPOS>MOLECULE
IMPHY012620
 24 23 0 0 0
SMALL
GASTEIGER

@<TRIPOS>ATOM
      1 SI          3.7320    0.0000    0.0000 Si      1  UNL1        0.0000
      2 O           4.5981    0.5000    0.0000 O.3     1  UNL1        0.0000
      3 C           2.8660   -0.5000    0.0000 C.3     1  UNL1        0.0000
      4 C           3.2320    0.8660    0.0000 C.3     1  UNL1        0.0000
      5 C           4.2320   -0.8660    0.0000 C.3     1  UNL1        0.0000
      6 C           2.0000   -0.0000    0.0000 C.3     1  UNL1        0.0000
      7 C           5.4641    0.0000    0.0000 C.3     1  UNL1        0.0000
      8 C           6.3301    0.5000    0.0000 C.3     1  UNL1        0.0000
      9 H           2.4675   -0.9749    0.0000 H       1  UNL1        0.0000
     10 H           3.2646   -0.9749    0.0000 H       1  UNL1        0.0000
     11 H           3.7690    1.1760    0.0000 H       1  UNL1        0.0000
     12 H           2.9220    1.4030    0.0000 H       1  UNL1        0.0000
     13 H           2.6951    0.5560    0.0000 H       1  UNL1        0.0000
     14 H           3.6951   -1.1760    0.0000 H       1  UNL1        0.0000
     15 H           4.5420   -1.4030    0.0000 H       1  UNL1        0.0000
     16 H           4.7690   -0.5560    0.0000 H       1  UNL1        0.0000
     17 H           2.3100    0.5369    0.0000 H       1  UNL1        0.0000
     18 H           1.4631    0.3100    0.0000 H       1  UNL1        0.0000
     19 H           1.6900   -0.5369    0.0000 H       1  UNL1        0.0000
     20 H           5.0656   -0.4749    0.0000 H       1  UNL1        0.0000
     21 H           5.8626   -0.4749    0.0000 H       1  UNL1        0.0000
     22 H           6.6401   -0.0369    0.0000 H       1  UNL1        0.0000
     23 H           6.8671    0.8100    0.0000 H       1  UNL1        0.0000
     24 H           6.0201    1.0369    0.0000 H       1  UNL1        0.0000
@<TRIPOS>BOND
     1     1     2    1
     2     1     3    1
     3     1     4    1
     4     1     5    1
     5     2     7    1
     6     3     6    1
     7     3     9    1
     8     3    10    1
     9     4    11    1
    10     4    12    1
    11     4    13    1
    12     5    14    1
    13     5    15    1
    14     5    16    1
    15     6    17    1
    16     6    18    1
    17     6    19    1
    18     7     8    1
    19     7    20    1
    20     7    21    1
    21     8    22    1
    22     8    23    1
    23     8    24    1
