@<TRIPOS>MOLECULE
IMPHY005086
 76 83 0 0 0
SMALL
GASTEIGER

@<TRIPOS>ATOM
      1 O           6.1964   -0.4697    0.0000 O.3     1  UNL1       -0.4482
      2 O           4.5808    0.4630    0.0000 O.3     1  UNL1       -0.4449
      3 O           2.8698   -0.4358    0.0000 O.3     1  UNL1       -0.4913
      4 O          10.5744   -1.8518    0.0000 O.3     1  UNL1       -0.4523
      5 O           9.6491   -1.2820    0.0000 O.3     1  UNL1       -0.4914
      6 N           7.9446    3.4118    0.0000 N.3     1  UNL1       -0.2978
      7 N           6.3071   -3.4051    0.0000 N.3     1  UNL1       -0.3086
      8 C           7.9368    2.3998    0.0000 C.3     1  UNL1        0.0397
      9 C           7.0527    1.9074    0.0000 C.ar    1  UNL1       -0.0231
     10 C           6.2112    2.3932    0.0000 C.ar    1  UNL1       -0.0378
     11 C           6.2915   -2.3931    0.0000 C.3     1  UNL1        0.0407
     12 C           7.0682    3.9178    0.0000 C.3     1  UNL1        0.0032
     13 C           6.1957    3.4051    0.0000 C.3     1  UNL1       -0.0144
     14 C           5.4036   -1.9076    0.0000 C.ar    1  UNL1        0.0192
     15 C           8.7392    1.9241    0.0000 C.3     1  UNL1       -0.0078
     16 C           4.5660   -2.3998    0.0000 C.ar    1  UNL1       -0.0343
     17 C           5.3886   -0.9361    0.0000 C.ar    1  UNL1        0.1792
     18 C           4.5581   -3.4118    0.0000 C.3     1  UNL1       -0.0145
     19 C           7.0452    0.9358    0.0000 C.ar    1  UNL1       -0.0107
     20 C           5.4346   -3.9178    0.0000 C.3     1  UNL1        0.0004
     21 C           6.1964    0.4630    0.0000 C.ar    1  UNL1        0.1710
     22 C           7.0902   -1.9113    0.0000 C.3     1  UNL1       -0.0080
     23 C           5.3736    1.9008    0.0000 C.ar    1  UNL1       -0.0121
     24 C           5.3886    0.9294    0.0000 C.ar    1  UNL1        0.1711
     25 C           4.5808   -0.4697    0.0000 C.ar    1  UNL1        0.2122
     26 C           8.8107    3.9118    0.0000 C.3     1  UNL1       -0.0122
     27 C           8.7282    0.9663    0.0000 C.ar    1  UNL1       -0.0419
     28 C           3.7245   -1.9140    0.0000 C.ar    1  UNL1       -0.0125
     29 C           3.7320   -0.9424    0.0000 C.ar    1  UNL1        0.1661
     30 C           7.9068   -2.3620    0.0000 C.ar    1  UNL1       -0.0453
     31 C           9.5521    0.4779    0.0000 C.ar    1  UNL1       -0.0124
     32 C           7.8932    0.4970    0.0000 C.ar    1  UNL1       -0.0548
     33 C           7.9247   -3.2946    0.0000 C.ar    1  UNL1       -0.0550
     34 C           8.7054   -1.8801    0.0000 C.ar    1  UNL1       -0.0550
     35 C           9.5411   -0.4798    0.0000 C.ar    1  UNL1        0.1701
     36 C           7.8822   -0.4608    0.0000 C.ar    1  UNL1       -0.0160
     37 C           8.7061   -0.9492    0.0000 C.ar    1  UNL1        0.1621
     38 C           9.5400   -3.2635    0.0000 C.ar    1  UNL1        0.1286
     39 C           8.7413   -3.7452    0.0000 C.ar    1  UNL1       -0.0191
     40 C           9.5220   -2.3308    0.0000 C.ar    1  UNL1       -0.0191
     41 C           2.0000   -0.9291    0.0000 C.3     1  UNL1        0.0790
     42 C          10.4089   -0.6317    0.0000 C.3     1  UNL1        0.0790
     43 H           8.6770    2.8176    0.0000 H       1  UNL1        0.0515
     44 H           6.2734   -1.5433    0.0000 H       1  UNL1        0.0514
     45 H           7.4654    4.3938    0.0000 H       1  UNL1        0.0430
     46 H           6.6672    4.3907    0.0000 H       1  UNL1        0.0430
     47 H           5.9776    3.9855    0.0000 H       1  UNL1        0.0326
     48 H           5.5865    3.2896    0.0000 H       1  UNL1        0.0326
     49 H           9.3485    1.8094    0.0000 H       1  UNL1        0.0332
     50 H           8.9579    2.5042    0.0000 H       1  UNL1        0.0332
     51 H           3.9481   -3.3010    0.0000 H       1  UNL1        0.0326
     52 H           4.3446   -3.9939    0.0000 H       1  UNL1        0.0326
     53 H           7.5785    0.6196    0.0000 H       1  UNL1        0.0659
     54 H           5.0373   -4.3938    0.0000 H       1  UNL1        0.0427
     55 H           5.8356   -4.3907    0.0000 H       1  UNL1        0.0427
     56 H           6.8464   -3.7110    0.0000 H       1  UNL1        0.1225
     57 H           7.4795   -1.4288    0.0000 H       1  UNL1        0.0332
     58 H           6.6826   -1.4441    0.0000 H       1  UNL1        0.0332
     59 H           4.8331    2.2046    0.0000 H       1  UNL1        0.0658
     60 H           9.1207    3.3749    0.0000 H       1  UNL1        0.0391
     61 H           9.3476    4.2219    0.0000 H       1  UNL1        0.0391
     62 H           8.5006    4.4488    0.0000 H       1  UNL1        0.0391
     63 H           3.1864   -2.2219    0.0000 H       1  UNL1        0.0658
     64 H          10.0926    0.7818    0.0000 H       1  UNL1        0.0658
     65 H           7.3598    0.8131    0.0000 H       1  UNL1        0.0621
     66 H           7.3938   -3.6148    0.0000 H       1  UNL1        0.0621
     67 H           8.6934   -1.2603    0.0000 H       1  UNL1        0.0621
     68 H           7.3417   -0.7646    0.0000 H       1  UNL1        0.0655
     69 H           8.7532   -4.3651    0.0000 H       1  UNL1        0.0654
     70 H          10.0529   -2.0105    0.0000 H       1  UNL1        0.0654
     71 H           1.6941   -0.3898    0.0000 H       1  UNL1        0.0660
     72 H           1.4607   -1.2350    0.0000 H       1  UNL1        0.0660
     73 H           2.3059   -1.4684    0.0000 H       1  UNL1        0.0660
     74 H          10.8120   -1.1028    0.0000 H       1  UNL1        0.0660
     75 H          10.8799   -0.2286    0.0000 H       1  UNL1        0.0660
     76 H          10.0057   -0.1607    0.0000 H       1  UNL1        0.0660
@<TRIPOS>BOND
     1     1    17    1
     2     1    21    1
     3     2    24    1
     4     2    25    1
     5     3    29    1
     6     3    41    1
     7     4    35    1
     8     4    38    1
     9     5    37    1
    10     5    42    1
    11     6     8    1
    12     6    12    1
    13     6    26    1
    14     7    11    1
    15     7    20    1
    16     7    56    1
    17     8     9    1
    18     8    15    1
    19     8    43    1
    20     9    10   ar
    21     9    19   ar
    22    10    13    1
    23    10    23   ar
    24    11    14    1
    25    11    22    1
    26    11    44    1
    27    12    13    1
    28    12    45    1
    29    12    46    1
    30    13    47    1
    31    13    48    1
    32    14    16   ar
    33    14    17   ar
    34    15    27    1
    35    15    49    1
    36    15    50    1
    37    16    18    1
    38    16    28   ar
    39    17    25   ar
    40    18    20    1
    41    18    51    1
    42    18    52    1
    43    19    21   ar
    44    19    53    1
    45    20    54    1
    46    20    55    1
    47    21    24   ar
    48    22    30    1
    49    22    57    1
    50    22    58    1
    51    23    24   ar
    52    23    59    1
    53    25    29   ar
    54    26    60    1
    55    26    61    1
    56    26    62    1
    57    27    31   ar
    58    27    32   ar
    59    28    29   ar
    60    28    63    1
    61    30    33   ar
    62    30    34   ar
    63    31    35   ar
    64    31    64    1
    65    32    36   ar
    66    32    65    1
    67    33    39   ar
    68    33    66    1
    69    34    40   ar
    70    34    67    1
    71    35    37   ar
    72    36    37   ar
    73    36    68    1
    74    38    39   ar
    75    38    40   ar
    76    39    69    1
    77    40    70    1
    78    41    71    1
    79    41    72    1
    80    41    73    1
    81    42    74    1
    82    42    75    1
    83    42    76    1
