@<TRIPOS>MOLECULE
IMPHY017927
 11 10 0 0 0
SMALL
GASTEIGER

@<TRIPOS>ATOM
      1 C           0.0000   -1.3183    0.0000 C.3     1  UNL1        0.0305
      2 C           1.1343   -1.9928    0.0000 C.2     1  UNL1       -0.0272
      3 C           2.2687   -1.3183    0.0000 C.2     1  UNL1        0.0086
      4 C           3.4337   -1.9928    0.0000 C.2     1  UNL1        0.1688
      5 C           4.5680   -1.3183    0.0000 C.3     1  UNL1        0.0688
      6 C           5.7330   -1.9928    0.0000 C.3     1  UNL1        0.0081
      7 C           6.8673   -1.3183    0.0000 C.3     1  UNL1        0.0005
      8 C           8.0323   -1.9928    0.0000 C.3     1  UNL1        0.0000
      9 C           9.1973   -1.3183    0.0000 C.3     1  UNL1        0.0000
     10 O           3.4337   -3.3110    0.0000 O.2     1  UNL1       -0.2917
     11 C           2.2687    0.0000    0.0000 C.3     1  UNL1        0.0337
@<TRIPOS>BOND
     1     1     2    1
     2     2     3    2
     3     3     4    1
     4     3    11    1
     5     4     5    1
     6     4    10    2
     7     5     6    1
     8     6     7    1
     9     7     8    1
    10     8     9    1
