@<TRIPOS>MOLECULE
IMPHY016155
 20 21 0 0 0
SMALL
GASTEIGER

@<TRIPOS>ATOM
      1 C           2.8660    0.5000    0.0000 C.3     1  UNL1       -0.0199
      2 C           4.3660   -0.3660    0.0000 C.3     1  UNL1       -0.0199
      3 C           2.0000    0.0000    0.0000 C.3     1  UNL1       -0.0460
      4 C           2.0000    1.0000    0.0000 C.3     1  UNL1       -0.0460
      5 C           4.3660   -1.3660    0.0000 C.3     1  UNL1       -0.0460
      6 C           5.2320   -0.8660    0.0000 C.3     1  UNL1       -0.0460
      7 C           3.8660    0.5000    0.0000 C.2     1  UNL1       -0.0704
      8 C           4.3660    1.3660    0.0000 C.2     1  UNL1       -0.0989
      9 H           3.0265   -0.0989    0.0000 H       1  UNL1        0.0346
     10 H           3.7672   -0.5265    0.0000 H       1  UNL1        0.0346
     11 H           1.3894   -0.1077    0.0000 H       1  UNL1        0.0271
     12 H           2.2120   -0.5826    0.0000 H       1  UNL1        0.0271
     13 H           2.2120    1.5826    0.0000 H       1  UNL1        0.0271
     14 H           1.3894    1.1077    0.0000 H       1  UNL1        0.0271
     15 H           3.7554   -1.4737    0.0000 H       1  UNL1        0.0271
     16 H           4.5781   -1.9486    0.0000 H       1  UNL1        0.0271
     17 H           5.6306   -1.3410    0.0000 H       1  UNL1        0.0271
     18 H           5.6306   -0.3911    0.0000 H       1  UNL1        0.0271
     19 H           4.9860    1.3660    0.0000 H       1  UNL1        0.0535
     20 H           4.0560    1.9030    0.0000 H       1  UNL1        0.0535
@<TRIPOS>BOND
     1     1     3    1
     2     1     4    1
     3     1     7    1
     4     1     9    1
     5     2     5    1
     6     2     6    1
     7     2     7    1
     8     2    10    1
     9     3     4    1
    10     3    11    1
    11     3    12    1
    12     4    13    1
    13     4    14    1
    14     5     6    1
    15     5    15    1
    16     5    16    1
    17     6    17    1
    18     6    18    1
    19     7     8    2
    20     8    19    1
    21     8    20    1
