@<TRIPOS>MOLECULE
IMPHY000107
 70 74 0 0 0
SMALL
GASTEIGER

@<TRIPOS>ATOM
      1 O           2.0000   -2.8124    0.0000 O.2     1  UNL1       -0.2927
      2 N           9.9391    2.6520    0.0000 N.2     1  UNL1       -0.2919
      3 C           7.3931    0.2400    0.0000 C.3     1  UNL1       -0.0256
      4 C           7.3931   -0.7600    0.0000 C.3     1  UNL1       -0.0322
      5 C           6.5271   -1.2600    0.0000 C.3     1  UNL1       -0.0338
      6 C           5.6610   -0.7600    0.0000 C.3     1  UNL1       -0.0288
      7 C           8.3393    0.5447    0.0000 C.3     1  UNL1       -0.0277
      8 C           6.5271    0.7400    0.0000 C.3     1  UNL1       -0.0468
      9 C           8.3393   -1.0648    0.0000 C.3     1  UNL1       -0.0492
     10 C           4.7510   -1.2669    0.0000 C.3     1  UNL1       -0.0072
     11 C           5.6610    0.2400    0.0000 C.3     1  UNL1       -0.0487
     12 C           8.9229   -0.2600    0.0000 C.3     1  UNL1       -0.0489
     13 C           6.5431   -2.3015    0.0000 C.3     1  UNL1       -0.0459
     14 C           7.3931    1.2400    0.0000 C.3     1  UNL1       -0.0590
     15 C           8.6500    1.4952    0.0000 C.3     1  UNL1       -0.0024
     16 C           4.7430   -2.3085    0.0000 C.2     1  UNL1       -0.0601
     17 C           5.6451   -2.8293    0.0000 C.3     1  UNL1       -0.0305
     18 C           3.8242   -0.7028    0.0000 C.3     1  UNL1       -0.0367
     19 C           4.7587   -0.2669    0.0000 C.3     1  UNL1       -0.0556
     20 C           2.8763   -1.2307    0.0000 C.3     1  UNL1        0.0107
     21 C           9.6285    1.7014    0.0000 C.2     1  UNL1        0.0166
     22 C           7.9821    2.2395    0.0000 C.3     1  UNL1       -0.0570
     23 C           3.8076   -2.8582    0.0000 C.2     1  UNL1       -0.0194
     24 C           2.8680   -2.3157    0.0000 C.2     1  UNL1        0.1561
     25 C          10.2963    0.9572    0.0000 C.3     1  UNL1       -0.0141
     26 C          11.2748    1.1634    0.0000 C.3     1  UNL1       -0.0437
     27 C          11.5855    2.1139    0.0000 C.3     1  UNL1       -0.0240
     28 C          10.9176    2.8582    0.0000 C.3     1  UNL1        0.0422
     29 C          12.5640    2.3201    0.0000 C.3     1  UNL1       -0.0607
     30 H           7.4830   -1.6052    0.0000 H       1  UNL1        0.0309
     31 H           7.2664   -1.6793    0.0000 H       1  UNL1        0.0307
     32 H           6.3972   -0.3350    0.0000 H       1  UNL1        0.0312
     33 H           9.1790    0.6766    0.0000 H       1  UNL1        0.0312
     34 H           6.9256    1.2149    0.0000 H       1  UNL1        0.0271
     35 H           6.1285    1.2149    0.0000 H       1  UNL1        0.0271
     36 H           8.0883   -1.6317    0.0000 H       1  UNL1        0.0268
     37 H           8.8767   -1.3740    0.0000 H       1  UNL1        0.0268
     38 H           5.4490    0.8226    0.0000 H       1  UNL1        0.0268
     39 H           5.0504    0.1323    0.0000 H       1  UNL1        0.0268
     40 H           9.3838   -0.6747    0.0000 H       1  UNL1        0.0268
     41 H           9.3838    0.1547    0.0000 H       1  UNL1        0.0268
     42 H           6.7612   -2.8819    0.0000 H       1  UNL1        0.0271
     43 H           7.1523   -2.1860    0.0000 H       1  UNL1        0.0271
     44 H           8.0131    1.2400    0.0000 H       1  UNL1        0.0235
     45 H           7.3931    1.8600    0.0000 H       1  UNL1        0.0235
     46 H           6.7731    1.2400    0.0000 H       1  UNL1        0.0235
     47 H           8.0433    1.3674    0.0000 H       1  UNL1        0.0361
     48 H           5.2478   -3.3052    0.0000 H       1  UNL1        0.0310
     49 H           6.0460   -3.3022    0.0000 H       1  UNL1        0.0310
     50 H           4.2324   -0.2361    0.0000 H       1  UNL1        0.0278
     51 H           3.4343   -0.2207    0.0000 H       1  UNL1        0.0278
     52 H           5.3787   -0.2717    0.0000 H       1  UNL1        0.0238
     53 H           4.7635    0.3531    0.0000 H       1  UNL1        0.0238
     54 H           4.1388   -0.2621    0.0000 H       1  UNL1        0.0238
     55 H           2.6718   -0.6454    0.0000 H       1  UNL1        0.0345
     56 H           2.2647   -1.3321    0.0000 H       1  UNL1        0.0345
     57 H           8.4436    2.6536    0.0000 H       1  UNL1        0.0236
     58 H           7.5681    2.7010    0.0000 H       1  UNL1        0.0236
     59 H           7.5207    1.8255    0.0000 H       1  UNL1        0.0236
     60 H           3.8100   -3.4782    0.0000 H       1  UNL1        0.0652
     61 H           9.7700    0.6295    0.0000 H       1  UNL1        0.0325
     62 H          10.5276    0.3819    0.0000 H       1  UNL1        0.0325
     63 H          11.2954    0.5437    0.0000 H       1  UNL1        0.0272
     64 H          11.8886    1.0760    0.0000 H       1  UNL1        0.0272
     65 H          11.9995    1.6524    0.0000 H       1  UNL1        0.0316
     66 H          11.4440    3.1858    0.0000 H       1  UNL1        0.0511
     67 H          10.6864    3.4334    0.0000 H       1  UNL1        0.0511
     68 H          12.6918    1.7134    0.0000 H       1  UNL1        0.0233
     69 H          13.1707    2.4480    0.0000 H       1  UNL1        0.0233
     70 H          12.4361    2.9268    0.0000 H       1  UNL1        0.0233
@<TRIPOS>BOND
     1     1    24    2
     2     2    21    2
     3     2    28    1
     4     3     4    1
     5     3     7    1
     6     3     8    1
     7     3    14    1
     8     4     5    1
     9     4     9    1
    10     4    30    1
    11     5     6    1
    12     5    13    1
    13     5    31    1
    14     6    10    1
    15     6    11    1
    16     6    32    1
    17     7    12    1
    18     7    15    1
    19     7    33    1
    20     8    11    1
    21     8    34    1
    22     8    35    1
    23     9    12    1
    24     9    36    1
    25     9    37    1
    26    10    16    1
    27    10    18    1
    28    10    19    1
    29    11    38    1
    30    11    39    1
    31    12    40    1
    32    12    41    1
    33    13    17    1
    34    13    42    1
    35    13    43    1
    36    14    44    1
    37    14    45    1
    38    14    46    1
    39    15    21    1
    40    15    22    1
    41    15    47    1
    42    16    17    1
    43    16    23    2
    44    17    48    1
    45    17    49    1
    46    18    20    1
    47    18    50    1
    48    18    51    1
    49    19    52    1
    50    19    53    1
    51    19    54    1
    52    20    24    1
    53    20    55    1
    54    20    56    1
    55    21    25    1
    56    22    57    1
    57    22    58    1
    58    22    59    1
    59    23    24    1
    60    23    60    1
    61    25    26    1
    62    25    61    1
    63    25    62    1
    64    26    27    1
    65    26    63    1
    66    26    64    1
    67    27    28    1
    68    27    29    1
    69    27    65    1
    70    28    66    1
    71    28    67    1
    72    29    68    1
    73    29    69    1
    74    29    70    1
