@<TRIPOS>MOLECULE
IMPHY002267
 74 78 0 0 0
SMALL
GASTEIGER

@<TRIPOS>ATOM
      1 O           6.6098    2.6913    0.0000 O.2     1  UNL1       -0.2970
      2 O           2.1359    3.3357    0.0000 O.3     1  UNL1       -0.3909
      3 C           6.6098   -0.3087    0.0000 C.3     1  UNL1       -0.0148
      4 C           5.7438    0.1913    0.0000 C.3     1  UNL1       -0.0208
      5 C           7.4758    0.1913    0.0000 C.3     1  UNL1        0.0058
      6 C           5.7438    1.1913    0.0000 C.3     1  UNL1        0.0302
      7 C           4.8498    1.7260    0.0000 C.3     1  UNL1       -0.0006
      8 C           6.8190   -1.2805    0.0000 C.3     1  UNL1       -0.0241
      9 C           7.4758    1.1913    0.0000 C.3     1  UNL1        0.0161
     10 C           8.2129   -0.4757    0.0000 C.2     1  UNL1       -0.0381
     11 C           4.8498   -0.3433    0.0000 C.3     1  UNL1       -0.0304
     12 C           3.9438    1.2122    0.0000 C.2     1  UNL1       -0.0588
     13 C           6.6098    1.6913    0.0000 C.2     1  UNL1        0.1384
     14 C           7.8077   -1.3835    0.0000 C.2     1  UNL1       -0.0577
     15 C           5.7438   -0.8087    0.0000 C.3     1  UNL1       -0.0582
     16 C           4.8749    2.8107    0.0000 C.3     1  UNL1       -0.0409
     17 C           3.0000    1.7474    0.0000 C.3     1  UNL1        0.0126
     18 C           8.3419    0.6913    0.0000 C.3     1  UNL1       -0.0546
     19 C           3.9438    0.1705    0.0000 C.2     1  UNL1       -0.0833
     20 C           5.7197    2.2193    0.0000 C.3     1  UNL1       -0.0552
     21 C           3.9438    3.3676    0.0000 C.3     1  UNL1       -0.0252
     22 C           3.0000    2.8324    0.0000 C.3     1  UNL1        0.0640
     23 C           8.4026   -2.2310    0.0000 C.3     1  UNL1        0.0047
     24 C           9.2410   -0.3525    0.0000 C.2     1  UNL1       -0.0506
     25 C           9.4333   -2.1316    0.0000 C.3     1  UNL1       -0.0240
     26 C           2.0000    1.7435    0.0000 C.3     1  UNL1       -0.0537
     27 C           2.5033    0.8794    0.0000 C.3     1  UNL1       -0.0537
     28 C           9.8553   -1.1861    0.0000 C.2     1  UNL1       -0.0800
     29 C           7.9846   -3.1395    0.0000 C.2     1  UNL1       -0.0723
     30 C           9.6379    0.5653    0.0000 C.3     1  UNL1       -0.0397
     31 C           8.5623   -3.9557    0.0000 C.3     1  UNL1       -0.0435
     32 C           6.9888   -3.2316    0.0000 C.2     1  UNL1       -0.0991
     33 H           6.4799    0.6163    0.0000 H       1  UNL1        0.0316
     34 H           5.7503    2.0413    0.0000 H       1  UNL1        0.0389
     35 H           6.2025   -1.3465    0.0000 H       1  UNL1        0.0316
     36 H           6.8199   -1.9005    0.0000 H       1  UNL1        0.0316
     37 H           8.0864    1.0837    0.0000 H       1  UNL1        0.0350
     38 H           7.6879    1.7740    0.0000 H       1  UNL1        0.0350
     39 H           4.4562   -0.8223    0.0000 H       1  UNL1        0.0310
     40 H           5.2544   -0.8131    0.0000 H       1  UNL1        0.0310
     41 H           5.4338   -0.2717    0.0000 H       1  UNL1        0.0236
     42 H           5.2068   -1.1187    0.0000 H       1  UNL1        0.0236
     43 H           6.0538   -1.3456    0.0000 H       1  UNL1        0.0236
     44 H           5.4832    2.6905    0.0000 H       1  UNL1        0.0275
     45 H           5.0974    3.3894    0.0000 H       1  UNL1        0.0275
     46 H           8.6519    0.1544    0.0000 H       1  UNL1        0.0238
     47 H           8.8788    1.0013    0.0000 H       1  UNL1        0.0238
     48 H           8.0319    1.2283    0.0000 H       1  UNL1        0.0238
     49 H           3.4080   -0.1415    0.0000 H       1  UNL1        0.0572
     50 H           6.0256    1.6800    0.0000 H       1  UNL1        0.0238
     51 H           6.2590    2.5252    0.0000 H       1  UNL1        0.0238
     52 H           5.4138    2.7586    0.0000 H       1  UNL1        0.0238
     53 H           4.3484    3.8374    0.0000 H       1  UNL1        0.0291
     54 H           3.5502    3.8466    0.0000 H       1  UNL1        0.0291
     55 H           2.4625    2.5234    0.0000 H       1  UNL1        0.0602
     56 H           8.7618   -2.7364    0.0000 H       1  UNL1        0.0394
     57 H           9.3864   -2.7498    0.0000 H       1  UNL1        0.0316
     58 H          10.0344   -2.2837    0.0000 H       1  UNL1        0.0316
     59 H           1.9976    2.3635    0.0000 H       1  UNL1        0.0239
     60 H           1.3800    1.7412    0.0000 H       1  UNL1        0.0239
     61 H           2.0024    1.1235    0.0000 H       1  UNL1        0.0239
     62 H           1.9652    1.1874    0.0000 H       1  UNL1        0.0239
     63 H           2.1954    0.3413    0.0000 H       1  UNL1        0.0239
     64 H           3.0415    0.5715    0.0000 H       1  UNL1        0.0239
     65 H          10.4717   -1.1194    0.0000 H       1  UNL1        0.0575
     66 H          10.2070    0.3192    0.0000 H       1  UNL1        0.0278
     67 H           9.8840    1.1344    0.0000 H       1  UNL1        0.0278
     68 H           9.0688    0.8114    0.0000 H       1  UNL1        0.0278
     69 H           2.1383    3.9557    0.0000 H       1  UNL1        0.2098
     70 H           8.0562   -4.3139    0.0000 H       1  UNL1        0.0274
     71 H           8.9204   -4.4618    0.0000 H       1  UNL1        0.0274
     72 H           9.0684   -3.5976    0.0000 H       1  UNL1        0.0274
     73 H           6.6307   -2.7255    0.0000 H       1  UNL1        0.0534
     74 H           6.7296   -3.7948    0.0000 H       1  UNL1        0.0534
@<TRIPOS>BOND
     1     1    13    2
     2     2    22    1
     3     2    69    1
     4     3     4    1
     5     3     5    1
     6     3     8    1
     7     3    15    1
     8     4     6    1
     9     4    11    1
    10     4    33    1
    11     5     9    1
    12     5    10    1
    13     5    18    1
    14     6     7    1
    15     6    13    1
    16     6    34    1
    17     7    12    1
    18     7    16    1
    19     7    20    1
    20     8    14    1
    21     8    35    1
    22     8    36    1
    23     9    13    1
    24     9    37    1
    25     9    38    1
    26    10    14    2
    27    10    24    1
    28    11    19    1
    29    11    39    1
    30    11    40    1
    31    12    17    1
    32    12    19    2
    33    14    23    1
    34    15    41    1
    35    15    42    1
    36    15    43    1
    37    16    21    1
    38    16    44    1
    39    16    45    1
    40    17    22    1
    41    17    26    1
    42    17    27    1
    43    18    46    1
    44    18    47    1
    45    18    48    1
    46    19    49    1
    47    20    50    1
    48    20    51    1
    49    20    52    1
    50    21    22    1
    51    21    53    1
    52    21    54    1
    53    22    55    1
    54    23    25    1
    55    23    29    1
    56    23    56    1
    57    24    28    2
    58    24    30    1
    59    25    28    1
    60    25    57    1
    61    25    58    1
    62    26    59    1
    63    26    60    1
    64    26    61    1
    65    27    62    1
    66    27    63    1
    67    27    64    1
    68    28    65    1
    69    29    31    1
    70    29    32    2
    71    30    66    1
    72    30    67    1
    73    30    68    1
    74    31    70    1
    75    31    71    1
    76    31    72    1
    77    32    73    1
    78    32    74    1
