@<TRIPOS>MOLECULE
IMPHY005439
 17 17 0 0 0
SMALL
GASTEIGER

@<TRIPOS>ATOM
      1 O           4.5576   -1.0116    0.0000 O.3     1  UNL1       -0.4563
      2 O           3.4699    1.3362    0.0000 O.3     1  UNL1       -0.3875
      3 O           2.5896   -1.7110    0.0000 O.3     1  UNL1       -0.3913
      4 O           6.3177   -0.7329    0.0000 O.2     1  UNL1       -0.2507
      5 C           3.7486   -0.4239    0.0000 C.3     1  UNL1        0.1521
      6 C           4.0576    0.5272    0.0000 C.3     1  UNL1        0.1043
      7 C           5.0576    0.5272    0.0000 C.3     1  UNL1        0.0744
      8 C           2.7976   -0.7329    0.0000 C.3     1  UNL1        0.0837
      9 C           5.3667   -0.4239    0.0000 C.2     1  UNL1        0.3101
     10 H           3.6516   -1.0362    0.0000 H       1  UNL1        0.0784
     11 H           3.4453    0.4302    0.0000 H       1  UNL1        0.0636
     12 H           5.6641    0.6561    0.0000 H       1  UNL1        0.0404
     13 H           4.9928    1.1438    0.0000 H       1  UNL1        0.0404
     14 H           2.7113   -0.1189    0.0000 H       1  UNL1        0.0595
     15 H           2.1779   -0.7112    0.0000 H       1  UNL1        0.0595
     16 H           3.7220    1.9026    0.0000 H       1  UNL1        0.2100
     17 H           2.0000   -1.9026    0.0000 H       1  UNL1        0.2096
@<TRIPOS>BOND
     1     1     5    1
     2     1     9    1
     3     6     2    1
     4     2    16    1
     5     3     8    1
     6     3    17    1
     7     4     9    2
     8     5     6    1
     9     5     8    1
    10     5    10    1
    11     6     7    1
    12     6    11    1
    13     7     9    1
    14     7    12    1
    15     7    13    1
    16     8    14    1
    17     8    15    1
