@<TRIPOS>MOLECULE
IMPHY009582
 104 105 0 0 0
SMALL
GASTEIGER

@<TRIPOS>ATOM
      1 O          13.9253   -2.1184    0.0000 O.3     1  UNL1       -0.3683
      2 O          11.9573   -2.8178    0.0000 O.3     1  UNL1       -0.3892
      3 O          15.8933   -2.8178    0.0000 O.3     1  UNL1       -0.3892
      4 O          24.7950    1.6245    0.0000 O.3     1  UNL1       -0.4611
      5 O          25.9164    3.0094    0.0000 O.2     1  UNL1       -0.2505
      6 O          20.9759   -1.7375    0.0000 O.2     1  UNL1       -0.2974
      7 O          27.5532   -0.3299    0.0000 O.2     1  UNL1       -0.2977
      8 C          13.1163   -1.5307    0.0000 C.3     1  UNL1        0.0850
      9 C          14.7343   -1.5307    0.0000 C.3     1  UNL1        0.0850
     10 C          13.4253   -0.5796    0.0000 C.3     1  UNL1       -0.0217
     11 C          14.4253   -0.5796    0.0000 C.3     1  UNL1       -0.0217
     12 C          12.1652   -1.8397    0.0000 C.3     1  UNL1        0.0813
     13 C          15.6854   -1.8397    0.0000 C.3     1  UNL1        0.0813
     14 C          11.4221   -1.1706    0.0000 C.3     1  UNL1       -0.0244
     15 C          16.4285   -1.1706    0.0000 C.3     1  UNL1       -0.0244
     16 C          10.4710   -1.4796    0.0000 C.3     1  UNL1       -0.0506
     17 C          17.3796   -1.4796    0.0000 C.3     1  UNL1       -0.0506
     18 C           9.7279   -0.8104    0.0000 C.3     1  UNL1       -0.0530
     19 C          18.1227   -0.8104    0.0000 C.3     1  UNL1       -0.0526
     20 C          24.8995    0.6300    0.0000 C.3     1  UNL1        0.1039
     21 C           8.7768   -1.1195    0.0000 C.3     1  UNL1       -0.0531
     22 C          25.8777    0.4221    0.0000 C.3     1  UNL1       -0.0024
     23 C          26.3777    1.2881    0.0000 C.3     1  UNL1        0.0664
     24 C          19.0738   -1.1195    0.0000 C.3     1  UNL1       -0.0464
     25 C          24.1564   -0.0391    0.0000 C.3     1  UNL1       -0.0156
     26 C           8.0337   -0.4503    0.0000 C.3     1  UNL1       -0.0531
     27 C          23.2053    0.2699    0.0000 C.3     1  UNL1       -0.0493
     28 C          19.8169   -0.4503    0.0000 C.3     1  UNL1        0.0058
     29 C          25.7085    2.0313    0.0000 C.2     1  UNL1        0.3110
     30 C          22.4622   -0.3992    0.0000 C.3     1  UNL1       -0.0463
     31 C          27.3722    1.3927    0.0000 C.3     1  UNL1        0.0186
     32 C           7.0826   -0.7593    0.0000 C.3     1  UNL1       -0.0531
     33 C          21.5111   -0.0902    0.0000 C.3     1  UNL1        0.0058
     34 C          20.7680   -0.7593    0.0000 C.2     1  UNL1        0.1334
     35 C           6.3395   -0.0902    0.0000 C.3     1  UNL1       -0.0531
     36 C           5.3884   -0.3992    0.0000 C.3     1  UNL1       -0.0531
     37 C          27.9600    0.5836    0.0000 C.2     1  UNL1        0.1311
     38 C           4.6453    0.2699    0.0000 C.3     1  UNL1       -0.0531
     39 C           3.6942   -0.0391    0.0000 C.3     1  UNL1       -0.0533
     40 C          28.9545    0.6882    0.0000 C.3     1  UNL1       -0.0060
     41 C           2.9511    0.6300    0.0000 C.3     1  UNL1       -0.0559
     42 C           2.0000    0.3210    0.0000 C.3     1  UNL1       -0.0653
     43 H          12.9833   -2.3702    0.0000 H       1  UNL1        0.0622
     44 H          14.8673   -2.3702    0.0000 H       1  UNL1        0.0622
     45 H          13.4901    0.0370    0.0000 H       1  UNL1        0.0292
     46 H          12.8188   -0.4507    0.0000 H       1  UNL1        0.0292
     47 H          15.0317   -0.4507    0.0000 H       1  UNL1        0.0292
     48 H          14.3605    0.0370    0.0000 H       1  UNL1        0.0292
     49 H          11.3568   -2.1024    0.0000 H       1  UNL1        0.0619
     50 H          16.4938   -2.1024    0.0000 H       1  UNL1        0.0619
     51 H          11.9106   -0.7888    0.0000 H       1  UNL1        0.0291
     52 H          11.1310   -0.6231    0.0000 H       1  UNL1        0.0291
     53 H          16.7196   -0.6231    0.0000 H       1  UNL1        0.0291
     54 H          15.9399   -0.7888    0.0000 H       1  UNL1        0.0291
     55 H           9.9824   -1.8613    0.0000 H       1  UNL1        0.0266
     56 H          10.7621   -2.0270    0.0000 H       1  UNL1        0.0266
     57 H          17.0885   -2.0270    0.0000 H       1  UNL1        0.0266
     58 H          17.8681   -1.8613    0.0000 H       1  UNL1        0.0266
     59 H          10.2164   -0.4287    0.0000 H       1  UNL1        0.0265
     60 H           9.4368   -0.2630    0.0000 H       1  UNL1        0.0265
     61 H          18.4138   -0.2630    0.0000 H       1  UNL1        0.0265
     62 H          17.6341   -0.4287    0.0000 H       1  UNL1        0.0265
     63 H          11.3676   -3.0094    0.0000 H       1  UNL1        0.2099
     64 H          16.4829   -3.0094    0.0000 H       1  UNL1        0.2099
     65 H          24.1060    0.9346    0.0000 H       1  UNL1        0.0734
     66 H           8.2882   -1.5012    0.0000 H       1  UNL1        0.0265
     67 H           9.0679   -1.6669    0.0000 H       1  UNL1        0.0265
     68 H          25.6861   -0.1676    0.0000 H       1  UNL1        0.0309
     69 H          26.4441    0.1699    0.0000 H       1  UNL1        0.0309
     70 H          26.6823    2.0817    0.0000 H       1  UNL1        0.0419
     71 H          18.7827   -1.6669    0.0000 H       1  UNL1        0.0269
     72 H          19.5623   -1.5012    0.0000 H       1  UNL1        0.0269
     73 H          23.8653   -0.5865    0.0000 H       1  UNL1        0.0301
     74 H          24.6449   -0.4208    0.0000 H       1  UNL1        0.0301
     75 H           8.5222   -0.0686    0.0000 H       1  UNL1        0.0265
     76 H           7.7426    0.0971    0.0000 H       1  UNL1        0.0265
     77 H          23.4964    0.8173    0.0000 H       1  UNL1        0.0267
     78 H          22.7167    0.6516    0.0000 H       1  UNL1        0.0267
     79 H          20.1080    0.0971    0.0000 H       1  UNL1        0.0342
     80 H          19.3283   -0.0686    0.0000 H       1  UNL1        0.0342
     81 H          22.1711   -0.9467    0.0000 H       1  UNL1        0.0269
     82 H          22.9507   -0.7809    0.0000 H       1  UNL1        0.0269
     83 H          27.9294    1.6644    0.0000 H       1  UNL1        0.0349
     84 H          27.2013    1.9886    0.0000 H       1  UNL1        0.0349
     85 H           6.5940   -1.1410    0.0000 H       1  UNL1        0.0265
     86 H           7.3737   -1.3068    0.0000 H       1  UNL1        0.0265
     87 H          21.8022    0.4572    0.0000 H       1  UNL1        0.0342
     88 H          21.0225    0.2915    0.0000 H       1  UNL1        0.0342
     89 H           6.8280    0.2915    0.0000 H       1  UNL1        0.0265
     90 H           6.0484    0.4572    0.0000 H       1  UNL1        0.0265
     91 H           4.8998   -0.7809    0.0000 H       1  UNL1        0.0265
     92 H           5.6795   -0.9467    0.0000 H       1  UNL1        0.0265
     93 H           5.1338    0.6516    0.0000 H       1  UNL1        0.0265
     94 H           4.3542    0.8173    0.0000 H       1  UNL1        0.0265
     95 H           3.2056   -0.4208    0.0000 H       1  UNL1        0.0265
     96 H           3.9853   -0.5865    0.0000 H       1  UNL1        0.0265
     97 H          29.0193    0.0716    0.0000 H       1  UNL1        0.0306
     98 H          29.5711    0.7530    0.0000 H       1  UNL1        0.0306
     99 H          28.8897    1.3048    0.0000 H       1  UNL1        0.0306
    100 H           3.4396    1.0117    0.0000 H       1  UNL1        0.0263
    101 H           2.6600    1.1774    0.0000 H       1  UNL1        0.0263
    102 H           1.8084    0.9107    0.0000 H       1  UNL1        0.0230
    103 H           1.4103    0.1294    0.0000 H       1  UNL1        0.0230
    104 H           2.1916   -0.2687    0.0000 H       1  UNL1        0.0230
@<TRIPOS>BOND
     1     1     8    1
     2     1     9    1
     3     2    12    1
     4     2    63    1
     5     3    13    1
     6     3    64    1
     7     4    20    1
     8     4    29    1
     9     5    29    2
    10     6    34    2
    11     7    37    2
    12     8    10    1
    13     8    12    1
    14     8    43    1
    15     9    11    1
    16     9    13    1
    17     9    44    1
    18    10    11    1
    19    10    45    1
    20    10    46    1
    21    11    47    1
    22    11    48    1
    23    12    14    1
    24    12    49    1
    25    13    15    1
    26    13    50    1
    27    14    16    1
    28    14    51    1
    29    14    52    1
    30    15    17    1
    31    15    53    1
    32    15    54    1
    33    16    18    1
    34    16    55    1
    35    16    56    1
    36    17    19    1
    37    17    57    1
    38    17    58    1
    39    18    21    1
    40    18    59    1
    41    18    60    1
    42    19    24    1
    43    19    61    1
    44    19    62    1
    45    20    22    1
    46    20    25    1
    47    20    65    1
    48    21    26    1
    49    21    66    1
    50    21    67    1
    51    22    23    1
    52    22    68    1
    53    22    69    1
    54    23    29    1
    55    23    31    1
    56    23    70    1
    57    24    28    1
    58    24    71    1
    59    24    72    1
    60    25    27    1
    61    25    73    1
    62    25    74    1
    63    26    32    1
    64    26    75    1
    65    26    76    1
    66    27    30    1
    67    27    77    1
    68    27    78    1
    69    28    34    1
    70    28    79    1
    71    28    80    1
    72    30    33    1
    73    30    81    1
    74    30    82    1
    75    31    37    1
    76    31    83    1
    77    31    84    1
    78    32    35    1
    79    32    85    1
    80    32    86    1
    81    33    34    1
    82    33    87    1
    83    33    88    1
    84    35    36    1
    85    35    89    1
    86    35    90    1
    87    36    38    1
    88    36    91    1
    89    36    92    1
    90    37    40    1
    91    38    39    1
    92    38    93    1
    93    38    94    1
    94    39    41    1
    95    39    95    1
    96    39    96    1
    97    40    97    1
    98    40    98    1
    99    40    99    1
   100    41    42    1
   101    41   100    1
   102    41   101    1
   103    42   102    1
   104    42   103    1
   105    42   104    1
