@<TRIPOS>MOLECULE
IMPHY003553
 23 24 0 0 0
SMALL
GASTEIGER

@<TRIPOS>ATOM
      1 N           4.6660   -1.5000    0.0000 N.ar    1  UNL1       -0.2519
      2 C           3.8000    0.0000    0.0000 C.ar    1  UNL1        0.0033
      3 C           2.9061    0.5347    0.0000 C.ar    1  UNL1       -0.0413
      4 C           3.8000   -1.0000    0.0000 C.ar    1  UNL1        0.0715
      5 C           4.6660    0.5000    0.0000 C.ar    1  UNL1       -0.0506
      6 C           2.0000    0.0208    0.0000 C.ar    1  UNL1       -0.0582
      7 C           2.9061   -1.5346    0.0000 C.ar    1  UNL1       -0.0357
      8 C           5.5321   -1.0000    0.0000 C.ar    1  UNL1        0.0389
      9 C           5.5321    0.0000    0.0000 C.ar    1  UNL1       -0.0401
     10 C           2.0000   -1.0208    0.0000 C.ar    1  UNL1       -0.0595
     11 C           2.9176    1.5346    0.0000 C.3     1  UNL1       -0.0391
     12 C           6.3981   -1.5000    0.0000 C.3     1  UNL1       -0.0223
     13 H           4.6660    1.1200    0.0000 H       1  UNL1        0.0625
     14 H           1.4643    0.3329    0.0000 H       1  UNL1        0.0620
     15 H           2.9132   -2.1546    0.0000 H       1  UNL1        0.0639
     16 H           6.0690    0.3100    0.0000 H       1  UNL1        0.0636
     17 H           1.4643   -1.3328    0.0000 H       1  UNL1        0.0618
     18 H           3.5376    1.5275    0.0000 H       1  UNL1        0.0278
     19 H           2.9248    2.1546    0.0000 H       1  UNL1        0.0278
     20 H           2.2977    1.5418    0.0000 H       1  UNL1        0.0278
     21 H           6.0881   -2.0369    0.0000 H       1  UNL1        0.0292
     22 H           6.9350   -1.8100    0.0000 H       1  UNL1        0.0292
     23 H           6.7081   -0.9630    0.0000 H       1  UNL1        0.0292
@<TRIPOS>BOND
     1     1     4   ar
     2     1     8   ar
     3     2     3   ar
     4     2     4   ar
     5     2     5   ar
     6     3     6   ar
     7     3    11    1
     8     4     7   ar
     9     5     9   ar
    10     5    13    1
    11     6    10   ar
    12     6    14    1
    13     7    10   ar
    14     7    15    1
    15     8     9   ar
    16     8    12    1
    17     9    16    1
    18    10    17    1
    19    11    18    1
    20    11    19    1
    21    11    20    1
    22    12    21    1
    23    12    22    1
    24    12    23    1
