@<TRIPOS>MOLECULE
IMPHY008538
 79 85 0 0 0
SMALL
GASTEIGER

@<TRIPOS>ATOM
      1 O           4.2864   -1.8985    0.0000 O.3     1  UNL1       -0.4857
      2 O           6.9181    0.3371    0.0000 O.3     1  UNL1       -0.5060
      3 O           6.8896   -2.7144    0.0000 O.3     1  UNL1       -0.5056
      4 O           2.5405    1.2589    0.0000 O.3     1  UNL1       -0.5059
      5 O           3.4446    2.7558    0.0000 O.2     1  UNL1       -0.2864
      6 O           8.2679   -3.7907    0.0000 O.2     1  UNL1       -0.2864
      7 N           6.0427    1.2558    0.0000 N.ar    1  UNL1       -0.3536
      8 N          10.1606   -1.4631    0.0000 N.ar    1  UNL1       -0.3423
      9 C           6.1447   -0.8064    0.0000 C.3     1  UNL1        0.0252
     10 C           6.1614   -1.8912    0.0000 C.3     1  UNL1       -0.0022
     11 C           5.2260   -2.4410    0.0000 C.3     1  UNL1        0.1060
     12 C           5.1928   -0.2858    0.0000 C.ar    1  UNL1        0.0262
     13 C           7.1326   -0.9610    0.0000 C.ar    1  UNL1        0.0442
     14 C           4.2947   -0.8135    0.0000 C.ar    1  UNL1        0.1305
     15 C           5.1767    0.7558    0.0000 C.ar    1  UNL1        0.0614
     16 C           4.7293   -3.3089    0.0000 C.3     1  UNL1       -0.0252
     17 C           5.7293   -3.3051    0.0000 C.3     1  UNL1       -0.0252
     18 C           7.7898   -0.1528    0.0000 C.ar    1  UNL1        0.1295
     19 C           7.5114   -1.9313    0.0000 C.ar    1  UNL1        0.1369
     20 C           4.3107    1.2558    0.0000 C.ar    1  UNL1        0.0874
     21 C           8.8170   -0.3258    0.0000 C.ar    1  UNL1        0.0224
     22 C           8.5424   -2.0805    0.0000 C.ar    1  UNL1        0.0879
     23 C           3.3926   -0.2927    0.0000 C.ar    1  UNL1        0.0227
     24 C           9.1732   -1.3046    0.0000 C.ar    1  UNL1        0.0635
     25 C           3.4007    0.7489    0.0000 C.ar    1  UNL1        0.1331
     26 C           4.3107    2.2558    0.0000 C.ar    1  UNL1        0.2006
     27 C           9.4568    0.4427    0.0000 C.3     1  UNL1       -0.0038
     28 C           6.0427    2.2558    0.0000 C.ar    1  UNL1        0.0506
     29 C           8.8988   -3.0148    0.0000 C.ar    1  UNL1        0.2006
     30 C           5.1767    2.7558    0.0000 C.ar    1  UNL1        0.0457
     31 C          10.5171   -2.3974    0.0000 C.ar    1  UNL1        0.0529
     32 C           9.8862   -3.1732    0.0000 C.ar    1  UNL1        0.0459
     33 C          10.7915   -0.6872    0.0000 C.3     1  UNL1        0.0124
     34 C          10.4423    0.2729    0.0000 C.2     1  UNL1       -0.0808
     35 C           6.9527    2.7626    0.0000 C.ar    1  UNL1       -0.0377
     36 C           5.1606    3.7973    0.0000 C.ar    1  UNL1       -0.0489
     37 C          11.5480   -2.5465    0.0000 C.ar    1  UNL1       -0.0375
     38 C          10.2424   -4.1520    0.0000 C.ar    1  UNL1       -0.0489
     39 C           6.9608    3.8042    0.0000 C.ar    1  UNL1       -0.0598
     40 C           6.0587    4.3250    0.0000 C.ar    1  UNL1       -0.0610
     41 C          11.9268   -3.5168    0.0000 C.ar    1  UNL1       -0.0598
     42 C          11.2696   -4.3250    0.0000 C.ar    1  UNL1       -0.0610
     43 C          11.0821    1.0414    0.0000 C.2     1  UNL1       -0.0793
     44 C          12.0676    0.8715    0.0000 C.3     1  UNL1       -0.0440
     45 C          10.7365    1.9797    0.0000 C.3     1  UNL1       -0.0440
     46 H           6.5514   -1.2743    0.0000 H       1  UNL1        0.0403
     47 H           6.3794   -2.4716    0.0000 H       1  UNL1        0.0313
     48 H           6.7706   -1.7757    0.0000 H       1  UNL1        0.0313
     49 H           4.1912   -3.0010    0.0000 H       1  UNL1        0.0268
     50 H           4.4214   -3.8470    0.0000 H       1  UNL1        0.0268
     51 H           5.2675   -3.6168    0.0000 H       1  UNL1        0.0268
     52 H           5.1936   -3.6171    0.0000 H       1  UNL1        0.0268
     53 H           6.0414   -3.8408    0.0000 H       1  UNL1        0.0268
     54 H           6.2651   -2.9930    0.0000 H       1  UNL1        0.0268
     55 H           2.8545   -0.6006    0.0000 H       1  UNL1        0.0691
     56 H           6.5797    0.9458    0.0000 H       1  UNL1        0.1659
     57 H           9.6666    1.0261    0.0000 H       1  UNL1        0.0357
     58 H           8.9187    0.7506    0.0000 H       1  UNL1        0.0357
     59 H           6.3848    0.0209    0.0000 H       1  UNL1        0.2922
     60 H           7.1173   -3.2911    0.0000 H       1  UNL1        0.2922
     61 H          11.2726   -1.0784    0.0000 H       1  UNL1        0.0456
     62 H          11.1827   -0.2062    0.0000 H       1  UNL1        0.0456
     63 H          10.3105   -0.2960    0.0000 H       1  UNL1        0.0456
     64 H          10.6566   -0.3089    0.0000 H       1  UNL1        0.0575
     65 H           7.4860    2.4464    0.0000 H       1  UNL1        0.0638
     66 H           4.6202    4.1010    0.0000 H       1  UNL1        0.0625
     67 H           2.0000    0.9551    0.0000 H       1  UNL1        0.2922
     68 H          11.9335   -2.0610    0.0000 H       1  UNL1        0.0638
     69 H           9.8458   -4.6285    0.0000 H       1  UNL1        0.0625
     70 H           7.4989    4.1121    0.0000 H       1  UNL1        0.0618
     71 H           6.0563    4.9450    0.0000 H       1  UNL1        0.0618
     72 H          12.5393   -3.6127    0.0000 H       1  UNL1        0.0618
     73 H          11.4884   -4.9051    0.0000 H       1  UNL1        0.0618
     74 H          11.9623    0.2605    0.0000 H       1  UNL1        0.0274
     75 H          12.6786    0.7662    0.0000 H       1  UNL1        0.0274
     76 H          12.1729    1.4825    0.0000 H       1  UNL1        0.0274
     77 H          11.3183    2.1940    0.0000 H       1  UNL1        0.0274
     78 H          10.5222    2.5615    0.0000 H       1  UNL1        0.0274
     79 H          10.1547    1.7654    0.0000 H       1  UNL1        0.0274
@<TRIPOS>BOND
     1     1    11    1
     2     1    14    1
     3     2    18    1
     4     2    59    1
     5     3    19    1
     6     3    60    1
     7     4    25    1
     8     4    67    1
     9     5    26    2
    10     6    29    2
    11     7    15   ar
    12     7    28   ar
    13     7    56    1
    14     8    24   ar
    15     8    31   ar
    16     8    33    1
    17     9    10    1
    18     9    12    1
    19     9    13    1
    20     9    46    1
    21    10    11    1
    22    10    47    1
    23    10    48    1
    24    11    16    1
    25    11    17    1
    26    12    14   ar
    27    12    15   ar
    28    13    18   ar
    29    13    19   ar
    30    14    23   ar
    31    15    20   ar
    32    16    49    1
    33    16    50    1
    34    16    51    1
    35    17    52    1
    36    17    53    1
    37    17    54    1
    38    18    21   ar
    39    19    22   ar
    40    20    25   ar
    41    20    26   ar
    42    21    24   ar
    43    21    27    1
    44    22    24   ar
    45    22    29   ar
    46    23    25   ar
    47    23    55    1
    48    26    30   ar
    49    27    34    1
    50    27    57    1
    51    27    58    1
    52    28    30   ar
    53    28    35   ar
    54    29    32   ar
    55    30    36   ar
    56    31    32   ar
    57    31    37   ar
    58    32    38   ar
    59    33    61    1
    60    33    62    1
    61    33    63    1
    62    34    43    2
    63    34    64    1
    64    35    39   ar
    65    35    65    1
    66    36    40   ar
    67    36    66    1
    68    37    41   ar
    69    37    68    1
    70    38    42   ar
    71    38    69    1
    72    39    40   ar
    73    39    70    1
    74    40    71    1
    75    41    42   ar
    76    41    72    1
    77    42    73    1
    78    43    44    1
    79    43    45    1
    80    44    74    1
    81    44    75    1
    82    44    76    1
    83    45    77    1
    84    45    78    1
    85    45    79    1
