@<TRIPOS>MOLECULE
IMPHY017297
 29 28 0 0 0
SMALL
GASTEIGER

@<TRIPOS>ATOM
      1 O           2.5369    0.7500    0.0000 O.3     1  UNL1       -0.3947
      2 C           6.0010    0.7500    0.0000 C.3     1  UNL1       -0.0285
      3 C           6.8671    0.2500    0.0000 C.3     1  UNL1       -0.0308
      4 C           5.1350    0.2500    0.0000 C.2     1  UNL1       -0.0742
      5 C           4.2690    0.7500    0.0000 C.3     1  UNL1       -0.0087
      6 C           7.7331    0.7500    0.0000 C.2     1  UNL1       -0.0850
      7 C           3.4030    0.2500    0.0000 C.3     1  UNL1        0.0479
      8 C           8.5991    0.2500    0.0000 C.2     1  UNL1       -0.0796
      9 C           5.1350   -0.7500    0.0000 C.2     1  UNL1       -0.0994
     10 C           9.4651    0.7500    0.0000 C.3     1  UNL1       -0.0440
     11 C           8.5991   -0.7500    0.0000 C.3     1  UNL1       -0.0440
     12 H           6.3996    1.2250    0.0000 H       1  UNL1        0.0313
     13 H           5.6025    1.2250    0.0000 H       1  UNL1        0.0313
     14 H           6.4685   -0.2249    0.0000 H       1  UNL1        0.0310
     15 H           7.2656   -0.2249    0.0000 H       1  UNL1        0.0310
     16 H           4.6675    1.2250    0.0000 H       1  UNL1        0.0332
     17 H           3.8705    1.2250    0.0000 H       1  UNL1        0.0332
     18 H           7.7331    1.3700    0.0000 H       1  UNL1        0.0572
     19 H           3.0044   -0.2249    0.0000 H       1  UNL1        0.0560
     20 H           3.8015   -0.2249    0.0000 H       1  UNL1        0.0560
     21 H           4.5981   -1.0600    0.0000 H       1  UNL1        0.0534
     22 H           5.6720   -1.0600    0.0000 H       1  UNL1        0.0534
     23 H           9.7751    0.2131    0.0000 H       1  UNL1        0.0274
     24 H          10.0021    1.0600    0.0000 H       1  UNL1        0.0274
     25 H           9.1551    1.2869    0.0000 H       1  UNL1        0.0274
     26 H           7.9791   -0.7500    0.0000 H       1  UNL1        0.0274
     27 H           8.5991   -1.3700    0.0000 H       1  UNL1        0.0274
     28 H           9.2191   -0.7500    0.0000 H       1  UNL1        0.0274
     29 H           2.0000    0.4400    0.0000 H       1  UNL1        0.2094
@<TRIPOS>BOND
     1     1     7    1
     2     1    29    1
     3     2     3    1
     4     2     4    1
     5     2    12    1
     6     2    13    1
     7     3     6    1
     8     3    14    1
     9     3    15    1
    10     4     5    1
    11     4     9    2
    12     5     7    1
    13     5    16    1
    14     5    17    1
    15     6     8    2
    16     6    18    1
    17     7    19    1
    18     7    20    1
    19     8    10    1
    20     8    11    1
    21     9    21    1
    22     9    22    1
    23    10    23    1
    24    10    24    1
    25    10    25    1
    26    11    26    1
    27    11    27    1
    28    11    28    1
