@<TRIPOS>MOLECULE
IMPHY015895
 58 57 0 0 0
SMALL
GASTEIGER

@<TRIPOS>ATOM
      1 C          10.6603   -0.0600    0.0000 C.3     1  UNL1       -0.0439
      2 C           9.7942    0.4400    0.0000 C.3     1  UNL1       -0.0505
      3 C           8.9282   -0.0600    0.0000 C.3     1  UNL1       -0.0526
      4 C          11.5263    0.4400    0.0000 C.3     1  UNL1       -0.0505
      5 C           8.0622    0.4400    0.0000 C.3     1  UNL1       -0.0504
      6 C           7.1962   -0.0600    0.0000 C.3     1  UNL1       -0.0436
      7 C          12.3923   -0.0600    0.0000 C.3     1  UNL1       -0.0526
      8 C          13.2583    0.4400    0.0000 C.3     1  UNL1       -0.0507
      9 C           6.3301    0.4400    0.0000 C.3     1  UNL1       -0.0470
     10 C          10.6603   -1.0600    0.0000 C.3     1  UNL1       -0.0624
     11 C          14.1244   -0.0600    0.0000 C.3     1  UNL1       -0.0467
     12 C           7.1962   -1.0600    0.0000 C.3     1  UNL1       -0.0624
     13 C           5.4641   -0.0600    0.0000 C.3     1  UNL1       -0.0340
     14 C          14.9904    0.4400    0.0000 C.3     1  UNL1       -0.0627
     15 C          14.1244   -1.0600    0.0000 C.3     1  UNL1       -0.0627
     16 C           4.5981    0.4400    0.0000 C.2     1  UNL1       -0.0811
     17 C           3.7320   -0.0600    0.0000 C.2     1  UNL1       -0.0549
     18 C           3.7320   -1.0600    0.0000 C.3     1  UNL1       -0.0400
     19 C           2.8660    0.4400    0.0000 C.2     1  UNL1       -0.0662
     20 C           2.0000   -0.0600    0.0000 C.2     1  UNL1       -0.0985
     21 H          11.1972   -0.3700    0.0000 H       1  UNL1        0.0298
     22 H          10.1928    0.9149    0.0000 H       1  UNL1        0.0268
     23 H           9.3957    0.9149    0.0000 H       1  UNL1        0.0268
     24 H           8.5297   -0.5349    0.0000 H       1  UNL1        0.0265
     25 H           9.3267   -0.5349    0.0000 H       1  UNL1        0.0265
     26 H          11.9248    0.9149    0.0000 H       1  UNL1        0.0268
     27 H          11.1278    0.9149    0.0000 H       1  UNL1        0.0268
     28 H           8.4607    0.9149    0.0000 H       1  UNL1        0.0268
     29 H           7.6636    0.9149    0.0000 H       1  UNL1        0.0268
     30 H           6.6592   -0.3700    0.0000 H       1  UNL1        0.0298
     31 H          11.9938   -0.5349    0.0000 H       1  UNL1        0.0265
     32 H          12.7908   -0.5349    0.0000 H       1  UNL1        0.0265
     33 H          13.6569    0.9149    0.0000 H       1  UNL1        0.0268
     34 H          12.8598    0.9149    0.0000 H       1  UNL1        0.0268
     35 H           6.7287    0.9149    0.0000 H       1  UNL1        0.0271
     36 H           5.9316    0.9149    0.0000 H       1  UNL1        0.0271
     37 H          10.0403   -1.0600    0.0000 H       1  UNL1        0.0232
     38 H          10.6603   -1.6800    0.0000 H       1  UNL1        0.0232
     39 H          11.2803   -1.0600    0.0000 H       1  UNL1        0.0232
     40 H          13.5874   -0.3700    0.0000 H       1  UNL1        0.0295
     41 H           6.5762   -1.0600    0.0000 H       1  UNL1        0.0232
     42 H           7.1962   -1.6800    0.0000 H       1  UNL1        0.0232
     43 H           7.8162   -1.0600    0.0000 H       1  UNL1        0.0232
     44 H           5.0656   -0.5349    0.0000 H       1  UNL1        0.0308
     45 H           5.8626   -0.5349    0.0000 H       1  UNL1        0.0308
     46 H          15.3004   -0.0969    0.0000 H       1  UNL1        0.0232
     47 H          15.5273    0.7500    0.0000 H       1  UNL1        0.0232
     48 H          14.6804    0.9769    0.0000 H       1  UNL1        0.0232
     49 H          13.5044   -1.0600    0.0000 H       1  UNL1        0.0232
     50 H          14.1244   -1.6800    0.0000 H       1  UNL1        0.0232
     51 H          14.7444   -1.0600    0.0000 H       1  UNL1        0.0232
     52 H           4.5981    1.0600    0.0000 H       1  UNL1        0.0575
     53 H           3.1120   -1.0600    0.0000 H       1  UNL1        0.0277
     54 H           3.7320   -1.6800    0.0000 H       1  UNL1        0.0277
     55 H           4.3520   -1.0600    0.0000 H       1  UNL1        0.0277
     56 H           2.8660    1.0600    0.0000 H       1  UNL1        0.0614
     57 H           1.4631    0.2500    0.0000 H       1  UNL1        0.0535
     58 H           2.0000   -0.6800    0.0000 H       1  UNL1        0.0535
@<TRIPOS>BOND
     1     1     2    1
     2     1     4    1
     3     1    10    1
     4     1    21    1
     5     2     3    1
     6     2    22    1
     7     2    23    1
     8     3     5    1
     9     3    24    1
    10     3    25    1
    11     4     7    1
    12     4    26    1
    13     4    27    1
    14     5     6    1
    15     5    28    1
    16     5    29    1
    17     6     9    1
    18     6    12    1
    19     6    30    1
    20     7     8    1
    21     7    31    1
    22     7    32    1
    23     8    11    1
    24     8    33    1
    25     8    34    1
    26     9    13    1
    27     9    35    1
    28     9    36    1
    29    10    37    1
    30    10    38    1
    31    10    39    1
    32    11    14    1
    33    11    15    1
    34    11    40    1
    35    12    41    1
    36    12    42    1
    37    12    43    1
    38    13    16    1
    39    13    44    1
    40    13    45    1
    41    14    46    1
    42    14    47    1
    43    14    48    1
    44    15    49    1
    45    15    50    1
    46    15    51    1
    47    16    17    2
    48    16    52    1
    49    17    18    1
    50    17    19    1
    51    18    53    1
    52    18    54    1
    53    18    55    1
    54    19    20    2
    55    19    56    1
    56    20    57    1
    57    20    58    1
