@<TRIPOS>MOLECULE
IMPHY009178
 84 88 0 0 0
SMALL
GASTEIGER

@<TRIPOS>ATOM
      1 O           2.5357   -3.0349    0.0000 O.3     1  UNL1       -0.3912
      2 O          11.4608    0.0516    0.0000 O.3     1  UNL1       -0.4802
      3 O          10.6064   -1.4551    0.0000 O.2     1  UNL1       -0.2504
      4 O          11.2187    3.0770    0.0000 O.3     1  UNL1       -0.4675
      5 O           9.7088    3.9256    0.0000 O.2     1  UNL1       -0.2502
      6 C           7.0628   -1.4826    0.0000 C.3     1  UNL1       -0.0194
      7 C           6.1968   -0.9826    0.0000 C.3     1  UNL1       -0.0257
      8 C           5.2868   -1.4895    0.0000 C.3     1  UNL1       -0.0250
      9 C           7.9288   -0.9826    0.0000 C.3     1  UNL1       -0.0051
     10 C           5.2787   -2.5311    0.0000 C.3     1  UNL1       -0.0278
     11 C           7.0789   -2.5241    0.0000 C.3     1  UNL1       -0.0463
     12 C           6.1808   -3.0519    0.0000 C.3     1  UNL1       -0.0486
     13 C           7.9288    0.0174    0.0000 C.2     1  UNL1       -0.0629
     14 C           4.3433   -3.0808    0.0000 C.3     1  UNL1       -0.0056
     15 C           6.1968    0.0174    0.0000 C.3     1  UNL1       -0.0306
     16 C           8.8228    0.5520    0.0000 C.3     1  UNL1       -0.0026
     17 C           4.3599   -0.9254    0.0000 C.3     1  UNL1       -0.0447
     18 C           8.8228   -1.5173    0.0000 C.3     1  UNL1       -0.0424
     19 C           9.7288    0.0382    0.0000 C.3     1  UNL1        0.0741
     20 C           7.7056   -2.2487    0.0000 C.3     1  UNL1       -0.0585
     21 C           9.7288   -1.0034    0.0000 C.3     1  UNL1       -0.0359
     22 C           3.4037   -2.5383    0.0000 C.3     1  UNL1        0.0606
     23 C           7.0628    0.5174    0.0000 C.2     1  UNL1       -0.0836
     24 C           5.2945   -0.4895    0.0000 C.3     1  UNL1       -0.0590
     25 C           3.4120   -1.4533    0.0000 C.3     1  UNL1       -0.0258
     26 C           8.2709   -1.9223    0.0000 C.3     1  UNL1       -0.0553
     27 C           8.7977    1.6368    0.0000 C.3     1  UNL1       -0.0299
     28 C          10.6726    0.5734    0.0000 C.3     1  UNL1       -0.0357
     29 C           9.7288    2.1937    0.0000 C.3     1  UNL1        0.0656
     30 C           3.8467   -3.9487    0.0000 C.3     1  UNL1       -0.0572
     31 C           4.8466   -3.9449    0.0000 C.3     1  UNL1       -0.0572
     32 C          10.6726    1.6584    0.0000 C.3     1  UNL1       -0.0365
     33 C          10.5987   -0.4551    0.0000 C.2     1  UNL1        0.3115
     34 C           9.2188    3.0539    0.0000 C.3     1  UNL1       -0.0494
     35 C          10.2188    3.0654    0.0000 C.2     1  UNL1        0.3128
     36 C          11.7087    3.9487    0.0000 C.3     1  UNL1        0.0817
     37 H           6.9329   -0.5576    0.0000 H       1  UNL1        0.0315
     38 H           5.2820   -3.3810    0.0000 H       1  UNL1        0.0312
     39 H           7.2969   -3.1045    0.0000 H       1  UNL1        0.0271
     40 H           7.6880   -2.4086    0.0000 H       1  UNL1        0.0271
     41 H           5.7835   -3.5278    0.0000 H       1  UNL1        0.0268
     42 H           6.5818   -3.5248    0.0000 H       1  UNL1        0.0268
     43 H           5.9847    0.6000    0.0000 H       1  UNL1        0.0310
     44 H           5.5862   -0.0903    0.0000 H       1  UNL1        0.0310
     45 H           9.5522    0.9883    0.0000 H       1  UNL1        0.0357
     46 H           4.7681   -0.4587    0.0000 H       1  UNL1        0.0271
     47 H           3.9700   -0.4433    0.0000 H       1  UNL1        0.0271
     48 H           8.4182   -1.9871    0.0000 H       1  UNL1        0.0274
     49 H           9.2164   -1.9963    0.0000 H       1  UNL1        0.0274
     50 H           7.2306   -2.6472    0.0000 H       1  UNL1        0.0235
     51 H           8.1041   -2.7236    0.0000 H       1  UNL1        0.0235
     52 H           8.1805   -1.8501    0.0000 H       1  UNL1        0.0235
     53 H           9.9379   -1.5871    0.0000 H       1  UNL1        0.0276
     54 H          10.3397   -0.8973    0.0000 H       1  UNL1        0.0276
     55 H           3.4025   -3.1583    0.0000 H       1  UNL1        0.0599
     56 H           7.0628    1.1374    0.0000 H       1  UNL1        0.0572
     57 H           5.9145   -0.4943    0.0000 H       1  UNL1        0.0235
     58 H           5.2993    0.1305    0.0000 H       1  UNL1        0.0235
     59 H           4.6745   -0.4847    0.0000 H       1  UNL1        0.0235
     60 H           3.2075   -0.8680    0.0000 H       1  UNL1        0.0290
     61 H           2.8004   -1.5547    0.0000 H       1  UNL1        0.0290
     62 H           7.6884   -2.1344    0.0000 H       1  UNL1        0.0238
     63 H           8.4830   -2.5049    0.0000 H       1  UNL1        0.0238
     64 H           8.8535   -1.7102    0.0000 H       1  UNL1        0.0238
     65 H           8.5752    2.2154    0.0000 H       1  UNL1        0.0282
     66 H           8.1894    1.5166    0.0000 H       1  UNL1        0.0282
     67 H          10.8817   -0.0103    0.0000 H       1  UNL1        0.0276
     68 H          11.2835    0.6795    0.0000 H       1  UNL1        0.0276
     69 H           3.3085   -3.6408    0.0000 H       1  UNL1        0.0236
     70 H           3.5387   -4.4869    0.0000 H       1  UNL1        0.0236
     71 H           4.3109   -4.2569    0.0000 H       1  UNL1        0.0236
     72 H           5.1587   -4.4806    0.0000 H       1  UNL1        0.0236
     73 H           5.3824   -3.6328    0.0000 H       1  UNL1        0.0236
     74 H           4.3848   -4.2567    0.0000 H       1  UNL1        0.0236
     75 H          11.2835    1.5523    0.0000 H       1  UNL1        0.0276
     76 H          10.8817    2.2421    0.0000 H       1  UNL1        0.0276
     77 H           2.0000   -2.7229    0.0000 H       1  UNL1        0.2098
     78 H           9.7522    3.3700    0.0000 H       1  UNL1        0.0240
     79 H           8.9027    3.5872    0.0000 H       1  UNL1        0.0240
     80 H           8.6855    2.7377    0.0000 H       1  UNL1        0.0240
     81 H          12.0001   -0.2543    0.0000 H       1  UNL1        0.2951
     82 H          12.2492    3.6450    0.0000 H       1  UNL1        0.0661
     83 H          12.0124    4.4892    0.0000 H       1  UNL1        0.0661
     84 H          11.1682    4.2525    0.0000 H       1  UNL1        0.0661
@<TRIPOS>BOND
     1    22     1    1
     2     1    77    1
     3     2    33    1
     4     2    81    1
     5     3    33    2
     6     4    35    1
     7     4    36    1
     8     5    35    2
     9     6     7    1
    10     6     9    1
    11     6    11    1
    12     6    20    1
    13     7     8    1
    14     7    15    1
    15     7    37    1
    16     8    10    1
    17     8    17    1
    18     8    24    1
    19     9    13    1
    20     9    18    1
    21     9    26    1
    22    10    12    1
    23    10    14    1
    24    10    38    1
    25    11    12    1
    26    11    39    1
    27    11    40    1
    28    12    41    1
    29    12    42    1
    30    13    16    1
    31    13    23    2
    32    14    22    1
    33    14    30    1
    34    14    31    1
    35    15    23    1
    36    15    43    1
    37    15    44    1
    38    16    19    1
    39    16    27    1
    40    16    45    1
    41    17    25    1
    42    17    46    1
    43    17    47    1
    44    18    21    1
    45    18    48    1
    46    18    49    1
    47    19    21    1
    48    19    28    1
    49    19    33    1
    50    20    50    1
    51    20    51    1
    52    20    52    1
    53    21    53    1
    54    21    54    1
    55    22    25    1
    56    22    55    1
    57    23    56    1
    58    24    57    1
    59    24    58    1
    60    24    59    1
    61    25    60    1
    62    25    61    1
    63    26    62    1
    64    26    63    1
    65    26    64    1
    66    27    29    1
    67    27    65    1
    68    27    66    1
    69    28    32    1
    70    28    67    1
    71    28    68    1
    72    29    32    1
    73    29    34    1
    74    29    35    1
    75    30    69    1
    76    30    70    1
    77    30    74    1
    78    31    71    1
    79    31    72    1
    80    31    73    1
    81    32    75    1
    82    32    76    1
    83    34    78    1
    84    34    79    1
    85    34    80    1
    86    36    82    1
    87    36    83    1
    88    36    84    1
