@<TRIPOS>MOLECULE
IMPHY017065
 61 60 0 0 0
SMALL
GASTEIGER

@<TRIPOS>ATOM
      1 O           3.7320    0.2500    0.0000 O.2     1  UNL1       -0.5000
      2 C          11.5263   -0.2500    0.0000 C.3     1  UNL1       -0.0531
      3 C          12.3923    0.2500    0.0000 C.3     1  UNL1       -0.0531
      4 C          10.6603    0.2500    0.0000 C.3     1  UNL1       -0.0531
      5 C          13.2583   -0.2500    0.0000 C.3     1  UNL1       -0.0531
      6 C           9.7942   -0.2500    0.0000 C.3     1  UNL1       -0.0531
      7 C          14.1244    0.2500    0.0000 C.3     1  UNL1       -0.0531
      8 C           8.9282    0.2500    0.0000 C.3     1  UNL1       -0.0531
      9 C          14.9904   -0.2500    0.0000 C.3     1  UNL1       -0.0531
     10 C           8.0622   -0.2500    0.0000 C.3     1  UNL1       -0.0531
     11 C          15.8564    0.2500    0.0000 C.3     1  UNL1       -0.0531
     12 C           7.1962    0.2500    0.0000 C.3     1  UNL1       -0.0530
     13 C          16.7224   -0.2500    0.0000 C.3     1  UNL1       -0.0531
     14 C           6.3301   -0.2500    0.0000 C.3     1  UNL1       -0.0500
     15 C          17.5885    0.2500    0.0000 C.3     1  UNL1       -0.0533
     16 C           5.4641    0.2500    0.0000 C.3     1  UNL1       -0.0187
     17 C          18.4545   -0.2500    0.0000 C.3     1  UNL1       -0.0559
     18 C           4.5981   -0.2500    0.0000 C.3     1  UNL1        0.0887
     19 C          19.3205    0.2500    0.0000 C.3     1  UNL1       -0.0653
     20 C           2.8660   -0.2500    0.0000 C.2     1  UNL1        0.0774
     21 C           2.0000    0.2500    0.0000 C.2     1  UNL1       -0.0642
     22 H          11.1278   -0.7249    0.0000 H       1  UNL1        0.0265
     23 H          11.9248   -0.7249    0.0000 H       1  UNL1        0.0265
     24 H          12.7908    0.7249    0.0000 H       1  UNL1        0.0265
     25 H          11.9938    0.7249    0.0000 H       1  UNL1        0.0265
     26 H          11.0588    0.7249    0.0000 H       1  UNL1        0.0265
     27 H          10.2617    0.7249    0.0000 H       1  UNL1        0.0265
     28 H          12.8598   -0.7249    0.0000 H       1  UNL1        0.0265
     29 H          13.6569   -0.7249    0.0000 H       1  UNL1        0.0265
     30 H           9.3957   -0.7249    0.0000 H       1  UNL1        0.0265
     31 H          10.1928   -0.7249    0.0000 H       1  UNL1        0.0265
     32 H          14.5229    0.7249    0.0000 H       1  UNL1        0.0265
     33 H          13.7258    0.7249    0.0000 H       1  UNL1        0.0265
     34 H           9.3267    0.7249    0.0000 H       1  UNL1        0.0265
     35 H           8.5297    0.7249    0.0000 H       1  UNL1        0.0265
     36 H          14.5919   -0.7249    0.0000 H       1  UNL1        0.0265
     37 H          15.3889   -0.7249    0.0000 H       1  UNL1        0.0265
     38 H           7.6636   -0.7249    0.0000 H       1  UNL1        0.0265
     39 H           8.4607   -0.7249    0.0000 H       1  UNL1        0.0265
     40 H          16.2549    0.7249    0.0000 H       1  UNL1        0.0265
     41 H          15.4579    0.7249    0.0000 H       1  UNL1        0.0265
     42 H           7.5947    0.7249    0.0000 H       1  UNL1        0.0265
     43 H           6.7976    0.7249    0.0000 H       1  UNL1        0.0265
     44 H          16.3239   -0.7249    0.0000 H       1  UNL1        0.0265
     45 H          17.1210   -0.7249    0.0000 H       1  UNL1        0.0265
     46 H           5.9316   -0.7249    0.0000 H       1  UNL1        0.0266
     47 H           6.7287   -0.7249    0.0000 H       1  UNL1        0.0266
     48 H          17.9870    0.7249    0.0000 H       1  UNL1        0.0265
     49 H          17.1899    0.7249    0.0000 H       1  UNL1        0.0265
     50 H           5.8626    0.7249    0.0000 H       1  UNL1        0.0298
     51 H           5.0656    0.7249    0.0000 H       1  UNL1        0.0298
     52 H          18.0560   -0.7249    0.0000 H       1  UNL1        0.0263
     53 H          18.8530   -0.7249    0.0000 H       1  UNL1        0.0263
     54 H           4.1996   -0.7249    0.0000 H       1  UNL1        0.0696
     55 H           4.9966   -0.7249    0.0000 H       1  UNL1        0.0696
     56 H          19.6305   -0.2869    0.0000 H       1  UNL1        0.0230
     57 H          19.8574    0.5600    0.0000 H       1  UNL1        0.0230
     58 H          19.0105    0.7869    0.0000 H       1  UNL1        0.0230
     59 H           2.8660   -0.8700    0.0000 H       1  UNL1        0.1017
     60 H           2.0000    0.8700    0.0000 H       1  UNL1        0.0565
     61 H           1.4631   -0.0600    0.0000 H       1  UNL1        0.0565
@<TRIPOS>BOND
     1     1    18    1
     2     1    20    1
     3     2     3    1
     4     2     4    1
     5     2    22    1
     6     2    23    1
     7     3     5    1
     8     3    24    1
     9     3    25    1
    10     4     6    1
    11     4    26    1
    12     4    27    1
    13     5     7    1
    14     5    28    1
    15     5    29    1
    16     6     8    1
    17     6    30    1
    18     6    31    1
    19     7     9    1
    20     7    32    1
    21     7    33    1
    22     8    10    1
    23     8    34    1
    24     8    35    1
    25     9    11    1
    26     9    36    1
    27     9    37    1
    28    10    12    1
    29    10    38    1
    30    10    39    1
    31    11    13    1
    32    11    40    1
    33    11    41    1
    34    12    14    1
    35    12    42    1
    36    12    43    1
    37    13    15    1
    38    13    44    1
    39    13    45    1
    40    14    16    1
    41    14    46    1
    42    14    47    1
    43    15    17    1
    44    15    48    1
    45    15    49    1
    46    16    18    1
    47    16    50    1
    48    16    51    1
    49    17    19    1
    50    17    52    1
    51    17    53    1
    52    18    54    1
    53    18    55    1
    54    19    56    1
    55    19    57    1
    56    19    58    1
    57    20    21    2
    58    20    59    1
    59    21    60    1
    60    21    61    1
