@<TRIPOS>MOLECULE
IMPHY000966
 136 143 0 0 0
SMALL
GASTEIGER

@<TRIPOS>ATOM
      1 O          11.1384   -1.2343    0.0000 O.3     1  UNL1       -0.3448
      2 O          10.2549    2.0827    0.0000 O.3     1  UNL1       -0.3944
      3 O           3.9791    4.9243    0.0000 O.3     1  UNL1       -0.4802
      4 O           5.7110    4.9443    0.0000 O.2     1  UNL1       -0.2504
      5 O          12.0044    0.2657    0.0000 O.3     1  UNL1       -0.3461
      6 O          12.8705   -2.2343    0.0000 O.3     1  UNL1       -0.3378
      7 O          14.6025   -1.2343    0.0000 O.3     1  UNL1       -0.3401
      8 O          14.6025    0.7657    0.0000 O.3     1  UNL1       -0.3868
      9 O          11.1384   -2.2343    0.0000 O.3     1  UNL1       -0.3431
     10 O          15.4685    0.2657    0.0000 O.3     1  UNL1       -0.3461
     11 O          12.8705   -4.2343    0.0000 O.3     1  UNL1       -0.3841
     12 O          11.1384   -5.2343    0.0000 O.3     1  UNL1       -0.3864
     13 O          16.3346   -2.2343    0.0000 O.3     1  UNL1       -0.3841
     14 O           9.4064   -4.2343    0.0000 O.3     1  UNL1       -0.3866
     15 O          18.0666   -1.2343    0.0000 O.3     1  UNL1       -0.3864
     16 O          18.0666    0.7657    0.0000 O.3     1  UNL1       -0.3869
     17 C           7.5184    1.8962    0.0000 C.3     1  UNL1       -0.0194
     18 C           7.5223    0.8962    0.0000 C.3     1  UNL1       -0.0257
     19 C           8.4183    0.3650    0.0000 C.3     1  UNL1       -0.0249
     20 C           6.6505    2.3928    0.0000 C.3     1  UNL1       -0.0051
     21 C           9.3224    0.8823    0.0000 C.3     1  UNL1       -0.0255
     22 C           8.4103    2.4343    0.0000 C.3     1  UNL1       -0.0463
     23 C          10.2682    0.3507    0.0000 C.3     1  UNL1        0.0206
     24 C           9.3184    1.9240    0.0000 C.3     1  UNL1       -0.0485
     25 C           5.7864    1.8895    0.0000 C.2     1  UNL1       -0.0629
     26 C           8.3974   -0.7198    0.0000 C.3     1  UNL1       -0.0447
     27 C           6.6582    0.3929    0.0000 C.3     1  UNL1       -0.0306
     28 C           4.8745    2.3928    0.0000 C.3     1  UNL1       -0.0031
     29 C           6.6625    3.4344    0.0000 C.3     1  UNL1       -0.0424
     30 C           4.8624    3.4344    0.0000 C.3     1  UNL1        0.0741
     31 C          10.2724   -0.7343    0.0000 C.3     1  UNL1        0.0695
     32 C           7.8568    2.8372    0.0000 C.3     1  UNL1       -0.0585
     33 C           5.7625    3.9587    0.0000 C.3     1  UNL1       -0.0359
     34 C           7.5503   -0.1317    0.0000 C.3     1  UNL1       -0.0590
     35 C           9.3307   -1.2731    0.0000 C.3     1  UNL1       -0.0254
     36 C           5.7902    0.8895    0.0000 C.2     1  UNL1       -0.0836
     37 C           7.2903    3.1614    0.0000 C.3     1  UNL1       -0.0553
     38 C           3.9498    1.8252    0.0000 C.3     1  UNL1       -0.0403
     39 C           3.9249    3.9805    0.0000 C.3     1  UNL1       -0.0362
     40 C           2.9999    2.3495    0.0000 C.3     1  UNL1       -0.0343
     41 C          10.7615    1.2206    0.0000 C.3     1  UNL1        0.0522
     42 C          11.2682    0.3584    0.0000 C.3     1  UNL1       -0.0548
     43 C           2.9873    3.4344    0.0000 C.3     1  UNL1       -0.0468
     44 C           4.8508    4.4344    0.0000 C.2     1  UNL1        0.3115
     45 C           2.0000    2.3341    0.0000 C.3     1  UNL1       -0.0598
     46 C           2.5133    1.4759    0.0000 C.3     1  UNL1       -0.0598
     47 C          12.0044   -0.7343    0.0000 C.3     1  UNL1        0.1882
     48 C          12.8705   -1.2343    0.0000 C.3     1  UNL1        0.1410
     49 C          13.7365   -0.7343    0.0000 C.3     1  UNL1        0.1206
     50 C          12.8705    0.7657    0.0000 C.3     1  UNL1        0.0792
     51 C          13.7365    0.2657    0.0000 C.3     1  UNL1        0.1073
     52 C          12.0044   -2.7343    0.0000 C.3     1  UNL1        0.1884
     53 C          15.4685   -0.7343    0.0000 C.3     1  UNL1        0.1880
     54 C          12.0044   -3.7343    0.0000 C.3     1  UNL1        0.1341
     55 C          11.1384   -4.2343    0.0000 C.3     1  UNL1        0.1140
     56 C          16.3346   -1.2343    0.0000 C.3     1  UNL1        0.1341
     57 C          10.2724   -2.7343    0.0000 C.3     1  UNL1        0.0873
     58 C          10.2724   -3.7343    0.0000 C.3     1  UNL1        0.1095
     59 C          17.2006   -0.7343    0.0000 C.3     1  UNL1        0.1137
     60 C          16.3346    0.7657    0.0000 C.3     1  UNL1        0.0792
     61 C          17.2006    0.2657    0.0000 C.3     1  UNL1        0.1069
     62 C           9.4064   -2.2343    0.0000 C.3     1  UNL1       -0.0361
     63 H           8.2600    1.3184    0.0000 H       1  UNL1        0.0315
     64 H           9.8569    1.1964    0.0000 H       1  UNL1        0.0313
     65 H           8.8021    2.9148    0.0000 H       1  UNL1        0.0271
     66 H           8.0039    2.9025    0.0000 H       1  UNL1        0.0271
     67 H           9.9296    1.8202    0.0000 H       1  UNL1        0.0268
     68 H           9.5252    2.5084    0.0000 H       1  UNL1        0.0268
     69 H           7.7887   -0.6020    0.0000 H       1  UNL1        0.0271
     70 H           8.1771   -1.2994    0.0000 H       1  UNL1        0.0271
     71 H           6.2615   -0.0836    0.0000 H       1  UNL1        0.0310
     72 H           7.0586   -0.0805    0.0000 H       1  UNL1        0.0310
     73 H           4.8941    1.5431    0.0000 H       1  UNL1        0.0357
     74 H           7.2721    3.3213    0.0000 H       1  UNL1        0.0274
     75 H           6.8783    4.0156    0.0000 H       1  UNL1        0.0274
     76 H          10.2712   -1.3543    0.0000 H       1  UNL1        0.0603
     77 H           8.4402    2.6274    0.0000 H       1  UNL1        0.0235
     78 H           8.0666    3.4206    0.0000 H       1  UNL1        0.0235
     79 H           7.2734    3.0470    0.0000 H       1  UNL1        0.0235
     80 H           6.1616    4.4331    0.0000 H       1  UNL1        0.0276
     81 H           5.3633    4.4331    0.0000 H       1  UNL1        0.0276
     82 H           7.2424    0.4065    0.0000 H       1  UNL1        0.0235
     83 H           7.0122   -0.4396    0.0000 H       1  UNL1        0.0235
     84 H           7.8583   -0.6698    0.0000 H       1  UNL1        0.0235
     85 H           8.9279   -1.7445    0.0000 H       1  UNL1        0.0290
     86 H           9.7261   -1.7506    0.0000 H       1  UNL1        0.0290
     87 H           5.2545    0.5775    0.0000 H       1  UNL1        0.0572
     88 H           7.7668    2.7647    0.0000 H       1  UNL1        0.0238
     89 H           7.6870    3.6378    0.0000 H       1  UNL1        0.0238
     90 H           6.8138    3.5581    0.0000 H       1  UNL1        0.0238
     91 H           3.5617    1.3417    0.0000 H       1  UNL1        0.0276
     92 H           4.3598    1.3601    0.0000 H       1  UNL1        0.0276
     93 H           4.3240    4.4550    0.0000 H       1  UNL1        0.0276
     94 H           3.5257    4.4550    0.0000 H       1  UNL1        0.0276
     95 H          11.2395    0.8257    0.0000 H       1  UNL1        0.0563
     96 H          11.2334    1.6228    0.0000 H       1  UNL1        0.0563
     97 H          11.2730   -0.2615    0.0000 H       1  UNL1        0.0237
     98 H          11.8882    0.3632    0.0000 H       1  UNL1        0.0237
     99 H          11.2634    0.9784    0.0000 H       1  UNL1        0.0237
    100 H           2.7715    4.0156    0.0000 H       1  UNL1        0.0271
    101 H           2.3777    3.3213    0.0000 H       1  UNL1        0.0271
    102 H           1.9904    2.9540    0.0000 H       1  UNL1        0.0235
    103 H           1.9716    1.7776    0.0000 H       1  UNL1        0.0235
    104 H           2.2116    0.9342    0.0000 H       1  UNL1        0.0235
    105 H           3.0549    1.1742    0.0000 H       1  UNL1        0.0235
    106 H           1.3801    2.3245    0.0000 H       1  UNL1        0.0235
    107 H           2.0096    1.7142    0.0000 H       1  UNL1        0.0235
    108 H          11.4675   -0.4243    0.0000 H       1  UNL1        0.0937
    109 H          10.5607    2.6220    0.0000 H       1  UNL1        0.2094
    110 H           3.9719    5.5443    0.0000 H       1  UNL1        0.2951
    111 H          13.4074   -1.5443    0.0000 H       1  UNL1        0.0675
    112 H          14.2734   -0.4243    0.0000 H       1  UNL1        0.0651
    113 H          13.2690    1.2407    0.0000 H       1  UNL1        0.0587
    114 H          12.4719    1.2407    0.0000 H       1  UNL1        0.0587
    115 H          13.7365    0.8857    0.0000 H       1  UNL1        0.0643
    116 H          12.0044   -2.1143    0.0000 H       1  UNL1        0.0938
    117 H          14.6025    1.3857    0.0000 H       1  UNL1        0.2100
    118 H          15.4685   -1.3543    0.0000 H       1  UNL1        0.0937
    119 H          12.0044   -4.3543    0.0000 H       1  UNL1        0.0671
    120 H          10.6015   -4.5443    0.0000 H       1  UNL1        0.0648
    121 H          16.8715   -1.5443    0.0000 H       1  UNL1        0.0671
    122 H          10.2724   -2.1143    0.0000 H       1  UNL1        0.0621
    123 H           9.7355   -3.4243    0.0000 H       1  UNL1        0.0646
    124 H          17.7375   -0.4243    0.0000 H       1  UNL1        0.0647
    125 H          12.8705   -4.8543    0.0000 H       1  UNL1        0.2101
    126 H          16.7331    1.2407    0.0000 H       1  UNL1        0.0587
    127 H          15.9360    1.2407    0.0000 H       1  UNL1        0.0587
    128 H          17.2006    0.8857    0.0000 H       1  UNL1        0.0643
    129 H           9.7164   -1.6973    0.0000 H       1  UNL1        0.0255
    130 H           8.8694   -1.9243    0.0000 H       1  UNL1        0.0255
    131 H           9.0964   -2.7712    0.0000 H       1  UNL1        0.0255
    132 H          10.6015   -5.5443    0.0000 H       1  UNL1        0.2100
    133 H          16.8715   -2.5443    0.0000 H       1  UNL1        0.2101
    134 H           8.8694   -3.9243    0.0000 H       1  UNL1        0.2100
    135 H          18.6036   -0.9243    0.0000 H       1  UNL1        0.2100
    136 H          18.0666    1.3857    0.0000 H       1  UNL1        0.2100
@<TRIPOS>BOND
     1    31     1    1
     2    47     1    1
     3     2    41    1
     4     2   109    1
     5     3    44    1
     6     3   110    1
     7     4    44    2
     8     5    47    1
     9     5    50    1
    10    48     6    1
    11    52     6    1
    12    49     7    1
    13    53     7    1
    14    51     8    1
    15     8   117    1
    16     9    52    1
    17     9    57    1
    18    10    53    1
    19    10    60    1
    20    54    11    1
    21    11   125    1
    22    55    12    1
    23    12   132    1
    24    56    13    1
    25    13   133    1
    26    58    14    1
    27    14   134    1
    28    59    15    1
    29    15   135    1
    30    61    16    1
    31    16   136    1
    32    17    18    1
    33    17    20    1
    34    17    22    1
    35    17    32    1
    36    18    19    1
    37    18    27    1
    38    18    63    1
    39    19    21    1
    40    19    26    1
    41    19    34    1
    42    20    25    1
    43    20    29    1
    44    20    37    1
    45    21    23    1
    46    21    24    1
    47    21    64    1
    48    22    24    1
    49    22    65    1
    50    22    66    1
    51    23    31    1
    52    23    41    1
    53    23    42    1
    54    24    67    1
    55    24    68    1
    56    25    28    1
    57    25    36    2
    58    26    35    1
    59    26    69    1
    60    26    70    1
    61    27    36    1
    62    27    71    1
    63    27    72    1
    64    28    30    1
    65    28    38    1
    66    28    73    1
    67    29    33    1
    68    29    74    1
    69    29    75    1
    70    30    33    1
    71    30    39    1
    72    30    44    1
    73    31    35    1
    74    31    76    1
    75    32    77    1
    76    32    78    1
    77    32    79    1
    78    33    80    1
    79    33    81    1
    80    34    82    1
    81    34    83    1
    82    34    84    1
    83    35    85    1
    84    35    86    1
    85    36    87    1
    86    37    88    1
    87    37    89    1
    88    37    90    1
    89    38    40    1
    90    38    91    1
    91    38    92    1
    92    39    43    1
    93    39    93    1
    94    39    94    1
    95    40    43    1
    96    40    45    1
    97    40    46    1
    98    41    95    1
    99    41    96    1
   100    42    97    1
   101    42    98    1
   102    42    99    1
   103    43   100    1
   104    43   101    1
   105    45   102    1
   106    45   106    1
   107    45   107    1
   108    46   103    1
   109    46   104    1
   110    46   105    1
   111    47    48    1
   112    47   108    1
   113    48    49    1
   114    48   111    1
   115    49    51    1
   116    49   112    1
   117    50    51    1
   118    50   113    1
   119    50   114    1
   120    51   115    1
   121    52    54    1
   122    52   116    1
   123    53    56    1
   124    53   118    1
   125    54    55    1
   126    54   119    1
   127    55    58    1
   128    55   120    1
   129    56    59    1
   130    56   121    1
   131    57    58    1
   132    57    62    1
   133    57   122    1
   134    58   123    1
   135    59    61    1
   136    59   124    1
   137    60    61    1
   138    60   126    1
   139    60   127    1
   140    61   128    1
   141    62   129    1
   142    62   130    1
   143    62   131    1
