@<TRIPOS>MOLECULE
IMPHY000134
 75 77 0 0 0
SMALL
GASTEIGER

@<TRIPOS>ATOM
      1 O           2.5369    2.6550    0.0000 O.3     1  UNL1       -0.5031
      2 O           2.5369    0.6550    0.0000 O.3     1  UNL1       -0.4914
      3 O           8.5991    5.1550    0.0000 O.3     1  UNL1       -0.4914
      4 O           8.5991    7.1550    0.0000 O.3     1  UNL1       -0.4915
      5 O           7.7331   -0.3450    0.0000 O.2     1  UNL1       -0.2922
      6 O           8.5991   -1.8450    0.0000 O.2     1  UNL1       -0.2922
      7 O           6.8671   -6.8450    0.0000 O.3     1  UNL1       -0.4914
      8 O           8.5991   -7.8450    0.0000 O.3     1  UNL1       -0.5033
      9 C           4.2690    3.6550    0.0000 C.3     1  UNL1        0.0033
     10 C           4.2690    2.6550    0.0000 C.ar    1  UNL1        0.0048
     11 C           3.4030    4.1550    0.0000 C.3     1  UNL1       -0.0548
     12 C           3.4030    2.1550    0.0000 C.ar    1  UNL1        0.1623
     13 C           5.1350    2.1550    0.0000 C.ar    1  UNL1       -0.0472
     14 C           5.1350    4.1550    0.0000 C.2     1  UNL1       -0.0762
     15 C           5.1350    1.1550    0.0000 C.ar    1  UNL1       -0.0210
     16 C           3.4030    1.1550    0.0000 C.ar    1  UNL1        0.1621
     17 C           4.2690    0.6550    0.0000 C.ar    1  UNL1       -0.0091
     18 C           5.1350    5.1550    0.0000 C.2     1  UNL1       -0.0578
     19 C           6.0010    5.6550    0.0000 C.ar    1  UNL1       -0.0216
     20 C           6.0010    0.6550    0.0000 C.2     1  UNL1       -0.0512
     21 C           6.8671    5.1550    0.0000 C.ar    1  UNL1       -0.0092
     22 C           6.0010    6.6550    0.0000 C.ar    1  UNL1       -0.0509
     23 C           6.0010   -0.3450    0.0000 C.2     1  UNL1       -0.0182
     24 C           7.7331    5.6550    0.0000 C.ar    1  UNL1        0.1620
     25 C           6.8671    7.1550    0.0000 C.ar    1  UNL1       -0.0157
     26 C           7.7331    6.6550    0.0000 C.ar    1  UNL1        0.1615
     27 C           6.8671   -0.8450    0.0000 C.2     1  UNL1        0.1635
     28 C           2.5369   -0.3450    0.0000 C.3     1  UNL1        0.0790
     29 C           6.8671   -1.8450    0.0000 C.3     1  UNL1        0.0724
     30 C           7.7331   -2.3450    0.0000 C.2     1  UNL1        0.1635
     31 C           8.5991   -4.8450    0.0000 C.ar    1  UNL1       -0.0212
     32 C           7.7331   -3.3450    0.0000 C.2     1  UNL1       -0.0182
     33 C           8.5991   -3.8450    0.0000 C.2     1  UNL1       -0.0512
     34 C           9.4651    5.6550    0.0000 C.3     1  UNL1        0.0790
     35 C           7.7331   -5.3450    0.0000 C.ar    1  UNL1       -0.0092
     36 C           8.5991    8.1550    0.0000 C.3     1  UNL1        0.0790
     37 C           9.4651   -5.3450    0.0000 C.ar    1  UNL1       -0.0509
     38 C           7.7331   -6.3450    0.0000 C.ar    1  UNL1        0.1618
     39 C           8.5991   -6.8450    0.0000 C.ar    1  UNL1        0.1585
     40 C           9.4651   -6.3450    0.0000 C.ar    1  UNL1       -0.0160
     41 C           6.8671   -7.8450    0.0000 C.3     1  UNL1        0.0790
     42 H           3.5329    3.2300    0.0000 H       1  UNL1        0.0390
     43 H           3.7130    4.6919    0.0000 H       1  UNL1        0.0239
     44 H           2.8660    4.4650    0.0000 H       1  UNL1        0.0239
     45 H           3.0930    3.6181    0.0000 H       1  UNL1        0.0239
     46 H           5.6720    2.4650    0.0000 H       1  UNL1        0.0627
     47 H           5.6720    3.8450    0.0000 H       1  UNL1        0.0578
     48 H           4.2690    0.0350    0.0000 H       1  UNL1        0.0661
     49 H           4.5981    5.4650    0.0000 H       1  UNL1        0.0621
     50 H           6.5380    0.9650    0.0000 H       1  UNL1        0.0625
     51 H           2.0000    2.3450    0.0000 H       1  UNL1        0.2923
     52 H           6.8671    4.5350    0.0000 H       1  UNL1        0.0661
     53 H           5.4641    6.9650    0.0000 H       1  UNL1        0.0625
     54 H           5.4641   -0.6550    0.0000 H       1  UNL1        0.0653
     55 H           6.8671    7.7750    0.0000 H       1  UNL1        0.0655
     56 H           1.9169   -0.3450    0.0000 H       1  UNL1        0.0660
     57 H           2.5369   -0.9650    0.0000 H       1  UNL1        0.0660
     58 H           3.1569   -0.3450    0.0000 H       1  UNL1        0.0660
     59 H           6.2565   -1.7373    0.0000 H       1  UNL1        0.0426
     60 H           6.6550   -2.4276    0.0000 H       1  UNL1        0.0426
     61 H           7.1962   -3.6550    0.0000 H       1  UNL1        0.0653
     62 H           9.1360   -3.5350    0.0000 H       1  UNL1        0.0625
     63 H           9.7751    5.1181    0.0000 H       1  UNL1        0.0660
     64 H          10.0021    5.9650    0.0000 H       1  UNL1        0.0660
     65 H           9.1551    6.1919    0.0000 H       1  UNL1        0.0660
     66 H           7.1962   -5.0350    0.0000 H       1  UNL1        0.0661
     67 H          10.0021   -5.0350    0.0000 H       1  UNL1        0.0625
     68 H           9.2191    8.1550    0.0000 H       1  UNL1        0.0660
     69 H           8.5991    8.7750    0.0000 H       1  UNL1        0.0660
     70 H           7.9791    8.1550    0.0000 H       1  UNL1        0.0660
     71 H          10.0021   -6.6550    0.0000 H       1  UNL1        0.0655
     72 H           9.1360   -8.1550    0.0000 H       1  UNL1        0.2923
     73 H           6.2471   -7.8450    0.0000 H       1  UNL1        0.0660
     74 H           6.8671   -8.4650    0.0000 H       1  UNL1        0.0660
     75 H           7.4871   -7.8450    0.0000 H       1  UNL1        0.0660
@<TRIPOS>BOND
     1     1    12    1
     2     1    51    1
     3     2    16    1
     4     2    28    1
     5     3    24    1
     6     3    34    1
     7     4    26    1
     8     4    36    1
     9     5    27    2
    10     6    30    2
    11     7    38    1
    12     7    41    1
    13     8    39    1
    14     8    72    1
    15     9    10    1
    16     9    11    1
    17     9    14    1
    18     9    42    1
    19    10    12   ar
    20    10    13   ar
    21    11    43    1
    22    11    44    1
    23    11    45    1
    24    12    16   ar
    25    13    15   ar
    26    13    46    1
    27    14    18    2
    28    14    47    1
    29    15    17   ar
    30    15    20    1
    31    16    17   ar
    32    17    48    1
    33    18    19    1
    34    18    49    1
    35    19    21   ar
    36    19    22   ar
    37    20    23    2
    38    20    50    1
    39    21    24   ar
    40    21    52    1
    41    22    25   ar
    42    22    53    1
    43    23    27    1
    44    23    54    1
    45    24    26   ar
    46    25    26   ar
    47    25    55    1
    48    27    29    1
    49    28    56    1
    50    28    57    1
    51    28    58    1
    52    29    30    1
    53    29    59    1
    54    29    60    1
    55    30    32    1
    56    31    33    1
    57    31    35   ar
    58    31    37   ar
    59    32    33    2
    60    32    61    1
    61    33    62    1
    62    34    63    1
    63    34    64    1
    64    34    65    1
    65    35    38   ar
    66    35    66    1
    67    36    68    1
    68    36    69    1
    69    36    70    1
    70    37    40   ar
    71    37    67    1
    72    38    39   ar
    73    39    40   ar
    74    40    71    1
    75    41    73    1
    76    41    74    1
    77    41    75    1
