@<TRIPOS>MOLECULE
IMPHY000160
 49 50 0 0 0
SMALL
GASTEIGER

@<TRIPOS>ATOM
      1 O           2.3100    2.5272    0.0000 O.3     1  UNL1       -0.4802
      2 O           3.8100    3.3933    0.0000 O.2     1  UNL1       -0.2504
      3 O           5.5353   -3.3732    0.0000 O.2     1  UNL1       -0.2977
      4 C           4.6760    0.1612    0.0000 C.3     1  UNL1       -0.0217
      5 C           4.6760    1.1612    0.0000 C.3     1  UNL1       -0.0193
      6 C           3.8100    1.6612    0.0000 C.3     1  UNL1        0.0681
      7 C           5.5700   -0.3734    0.0000 C.3     1  UNL1       -0.0141
      8 C           3.8100   -0.3388    0.0000 C.3     1  UNL1       -0.0468
      9 C           5.5700    1.6959    0.0000 C.3     1  UNL1       -0.0450
     10 C           2.9440    1.1612    0.0000 C.3     1  UNL1       -0.0372
     11 C           2.9440    0.1612    0.0000 C.3     1  UNL1       -0.0515
     12 C           4.6760   -0.8388    0.0000 C.3     1  UNL1       -0.0587
     13 C           6.4760    1.1820    0.0000 C.3     1  UNL1       -0.0314
     14 C           6.4760    0.1404    0.0000 C.2     1  UNL1       -0.0730
     15 C           5.5584   -1.3734    0.0000 C.3     1  UNL1       -0.0393
     16 C           4.3100    2.5272    0.0000 C.3     1  UNL1       -0.0491
     17 C           3.3100    2.5272    0.0000 C.2     1  UNL1        0.3110
     18 C           6.4186   -1.8834    0.0000 C.3     1  UNL1        0.0061
     19 C           7.3401   -0.3629    0.0000 C.2     1  UNL1       -0.0992
     20 C           6.4070   -2.8833    0.0000 C.2     1  UNL1        0.1303
     21 C           7.2672   -3.3933    0.0000 C.3     1  UNL1       -0.0061
     22 H           4.6695    2.0112    0.0000 H       1  UNL1        0.0317
     23 H           6.1039   -0.6886    0.0000 H       1  UNL1        0.0351
     24 H           3.4115   -0.8137    0.0000 H       1  UNL1        0.0271
     25 H           4.2085   -0.8137    0.0000 H       1  UNL1        0.0271
     26 H           5.9636    2.1749    0.0000 H       1  UNL1        0.0271
     27 H           5.1654    2.1657    0.0000 H       1  UNL1        0.0271
     28 H           2.7319    1.7438    0.0000 H       1  UNL1        0.0276
     29 H           2.3334    1.0536    0.0000 H       1  UNL1        0.0276
     30 H           2.3334    0.2689    0.0000 H       1  UNL1        0.0266
     31 H           2.7319   -0.4214    0.0000 H       1  UNL1        0.0266
     32 H           4.0560   -0.8388    0.0000 H       1  UNL1        0.0235
     33 H           4.6760   -1.4588    0.0000 H       1  UNL1        0.0235
     34 H           5.2960   -0.8388    0.0000 H       1  UNL1        0.0235
     35 H           7.0869    1.0759    0.0000 H       1  UNL1        0.0310
     36 H           6.6851    1.7657    0.0000 H       1  UNL1        0.0310
     37 H           4.9491   -1.2587    0.0000 H       1  UNL1        0.0275
     38 H           5.3396   -1.9535    0.0000 H       1  UNL1        0.0275
     39 H           4.8469    2.2172    0.0000 H       1  UNL1        0.0240
     40 H           4.6200    3.0642    0.0000 H       1  UNL1        0.0240
     41 H           3.7731    2.8372    0.0000 H       1  UNL1        0.0240
     42 H           7.0279   -1.9981    0.0000 H       1  UNL1        0.0342
     43 H           6.6374   -1.3032    0.0000 H       1  UNL1        0.0342
     44 H           7.3377   -0.9829    0.0000 H       1  UNL1        0.0534
     45 H           7.8782   -0.0550    0.0000 H       1  UNL1        0.0534
     46 H           2.0000    3.0642    0.0000 H       1  UNL1        0.2951
     47 H           6.9510   -3.9266    0.0000 H       1  UNL1        0.0306
     48 H           7.8005   -3.7095    0.0000 H       1  UNL1        0.0306
     49 H           7.5834   -2.8600    0.0000 H       1  UNL1        0.0306
@<TRIPOS>BOND
     1     1    17    1
     2     1    46    1
     3     2    17    2
     4     3    20    2
     5     4     5    1
     6     4     7    1
     7     4     8    1
     8     4    12    1
     9     5     6    1
    10     5     9    1
    11     5    22    1
    12     6    10    1
    13     6    16    1
    14     6    17    1
    15     7    14    1
    16     7    15    1
    17     7    23    1
    18     8    11    1
    19     8    24    1
    20     8    25    1
    21     9    13    1
    22     9    26    1
    23     9    27    1
    24    10    11    1
    25    10    28    1
    26    10    29    1
    27    11    30    1
    28    11    31    1
    29    12    32    1
    30    12    33    1
    31    12    34    1
    32    13    14    1
    33    13    35    1
    34    13    36    1
    35    14    19    2
    36    15    18    1
    37    15    37    1
    38    15    38    1
    39    16    39    1
    40    16    40    1
    41    16    41    1
    42    18    20    1
    43    18    42    1
    44    18    43    1
    45    19    44    1
    46    19    45    1
    47    20    21    1
    48    21    47    1
    49    21    48    1
    50    21    49    1
