@<TRIPOS>MOLECULE
IMPHY000283
 34 36 0 0 0
SMALL
GASTEIGER

@<TRIPOS>ATOM
      1 O           4.3198    1.4641    0.0000 O.3     1  UNL1       -0.4907
      2 O           2.5381   -1.5946    0.0000 O.3     1  UNL1       -0.4913
      3 O           2.5381    0.4537    0.0000 O.3     1  UNL1       -0.5009
      4 O           8.7202    1.9746    0.0000 O.3     1  UNL1       -0.5067
      5 C           5.2022   -0.0705    0.0000 C.ar    1  UNL1        0.0354
      6 C           6.0682    0.4295    0.0000 C.ar    1  UNL1       -0.0063
      7 C           5.2022   -1.0705    0.0000 C.ar    1  UNL1       -0.0101
      8 C           6.9343   -0.0705    0.0000 C.ar    1  UNL1       -0.0137
      9 C           4.3083    0.4642    0.0000 C.ar    1  UNL1        0.1732
     10 C           6.0682   -1.5705    0.0000 C.ar    1  UNL1       -0.0532
     11 C           6.9343   -1.0705    0.0000 C.ar    1  UNL1       -0.0533
     12 C           4.3083   -1.6051    0.0000 C.ar    1  UNL1       -0.0083
     13 C           3.4022   -0.0497    0.0000 C.ar    1  UNL1        0.2017
     14 C           6.0522    1.4710    0.0000 C.ar    1  UNL1       -0.0499
     15 C           3.4022   -1.0913    0.0000 C.ar    1  UNL1        0.1656
     16 C           7.8443    0.4364    0.0000 C.ar    1  UNL1       -0.0124
     17 C           6.9502    1.9988    0.0000 C.ar    1  UNL1       -0.0196
     18 C           7.8523    1.4780    0.0000 C.ar    1  UNL1        0.1175
     19 C           3.4597    1.9741    0.0000 C.3     1  UNL1        0.0790
     20 C           2.5420   -2.5946    0.0000 C.3     1  UNL1        0.0790
     21 H           6.0682   -2.1905    0.0000 H       1  UNL1        0.0624
     22 H           7.4712   -1.3805    0.0000 H       1  UNL1        0.0624
     23 H           4.3154   -2.2251    0.0000 H       1  UNL1        0.0661
     24 H           5.5117    1.7748    0.0000 H       1  UNL1        0.0625
     25 H           8.3776    0.1202    0.0000 H       1  UNL1        0.0660
     26 H           6.9478    2.6188    0.0000 H       1  UNL1        0.0654
     27 H           2.0000    0.1457    0.0000 H       1  UNL1        0.2924
     28 H           3.7758    2.5074    0.0000 H       1  UNL1        0.0660
     29 H           2.9263    2.2903    0.0000 H       1  UNL1        0.0660
     30 H           3.1435    1.4408    0.0000 H       1  UNL1        0.0660
     31 H           1.9220   -2.5970    0.0000 H       1  UNL1        0.0660
     32 H           2.5444   -3.2146    0.0000 H       1  UNL1        0.0660
     33 H           3.1620   -2.5922    0.0000 H       1  UNL1        0.0660
     34 H           8.7226    2.5946    0.0000 H       1  UNL1        0.2921
@<TRIPOS>BOND
     1     1     9    1
     2     1    19    1
     3     2    15    1
     4     2    20    1
     5     3    13    1
     6     3    27    1
     7     4    18    1
     8     4    34    1
     9     5     6   ar
    10     5     7   ar
    11     5     9   ar
    12     6     8   ar
    13     6    14   ar
    14     7    10   ar
    15     7    12   ar
    16     8    11   ar
    17     8    16   ar
    18     9    13   ar
    19    10    11   ar
    20    10    21    1
    21    11    22    1
    22    12    15   ar
    23    12    23    1
    24    13    15   ar
    25    14    17   ar
    26    14    24    1
    27    16    18   ar
    28    16    25    1
    29    17    18   ar
    30    17    26    1
    31    19    28    1
    32    19    29    1
    33    19    30    1
    34    20    31    1
    35    20    32    1
    36    20    33    1
