@<TRIPOS>MOLECULE
IMPHY006333
 30 32 0 0 0
SMALL
GASTEIGER

@<TRIPOS>ATOM
      1 O           5.3923   -1.9273    0.0000 O.3     1  UNL1       -0.4929
      2 O           5.9721    2.6781    0.0000 O.2     1  UNL1       -0.2907
      3 N           4.5274    1.3437    0.0000 N.ar    1  UNL1       -0.3523
      4 N           7.0547    0.2195    0.0000 N.ar    1  UNL1       -0.2463
      5 C           5.0274   -0.1951    0.0000 C.ar    1  UNL1        0.0527
      6 C           5.3364    0.7559    0.0000 C.ar    1  UNL1        0.0802
      7 C           4.0274   -0.1951    0.0000 C.ar    1  UNL1        0.0110
      8 C           3.7183    0.7559    0.0000 C.ar    1  UNL1        0.0476
      9 C           6.3518    0.9882    0.0000 C.ar    1  UNL1        0.1298
     10 C           5.7123   -0.9799    0.0000 C.ar    1  UNL1        0.1478
     11 C           3.3424   -0.9799    0.0000 C.ar    1  UNL1       -0.0519
     12 C           2.7029    0.9882    0.0000 C.ar    1  UNL1       -0.0378
     13 C           6.7328   -0.7712    0.0000 C.ar    1  UNL1        0.0707
     14 C           2.3219   -0.7712    0.0000 C.ar    1  UNL1       -0.0611
     15 C           2.0000    0.2195    0.0000 C.ar    1  UNL1       -0.0598
     16 C           6.6498    1.9428    0.0000 C.2     1  UNL1        0.1802
     17 C           7.6255    2.1620    0.0000 C.3     1  UNL1        0.0002
     18 C           6.0528   -2.6781    0.0000 C.3     1  UNL1        0.0789
     19 H           4.5274    1.9637    0.0000 H       1  UNL1        0.1660
     20 H           3.5408   -1.5673    0.0000 H       1  UNL1        0.0624
     21 H           2.5182    1.5800    0.0000 H       1  UNL1        0.0638
     22 H           7.1459   -1.2335    0.0000 H       1  UNL1        0.0867
     23 H           1.9088   -1.2335    0.0000 H       1  UNL1        0.0618
     24 H           1.3940    0.3507    0.0000 H       1  UNL1        0.0618
     25 H           7.7614    1.5570    0.0000 H       1  UNL1        0.0310
     26 H           8.2304    2.2979    0.0000 H       1  UNL1        0.0310
     27 H           7.4896    2.7669    0.0000 H       1  UNL1        0.0310
     28 H           5.5873   -3.0876    0.0000 H       1  UNL1        0.0660
     29 H           6.4623   -3.1436    0.0000 H       1  UNL1        0.0660
     30 H           6.5183   -2.2686    0.0000 H       1  UNL1        0.0660
@<TRIPOS>BOND
     1     1    10    1
     2     1    18    1
     3     2    16    2
     4     3     6   ar
     5     3     8   ar
     6     3    19    1
     7     4     9   ar
     8     4    13   ar
     9     5     6   ar
    10     5     7   ar
    11     5    10   ar
    12     6     9   ar
    13     7     8   ar
    14     7    11   ar
    15     8    12   ar
    16     9    16    1
    17    10    13   ar
    18    11    14   ar
    19    11    20    1
    20    12    15   ar
    21    12    21    1
    22    13    22    1
    23    14    15   ar
    24    14    23    1
    25    15    24    1
    26    16    17    1
    27    17    25    1
    28    17    26    1
    29    17    27    1
    30    18    28    1
    31    18    29    1
    32    18    30    1
