@<TRIPOS>MOLECULE
IMPHY006811
 38 40 0 0 0
SMALL
GASTEIGER

@<TRIPOS>ATOM
      1 O           3.5402    1.2593    0.0000 O.3     1  UNL1       -0.3612
      2 O           6.0159    0.0223    0.0000 O.3     1  UNL1       -0.4548
      3 O           7.3976   -1.0941    0.0000 O.2     1  UNL1       -0.2453
      4 C           4.4918    1.5682    0.0000 C.3     1  UNL1        0.0971
      5 C           4.2839    0.5901    0.0000 C.3     1  UNL1        0.1254
      6 C           5.0270   -0.0791    0.0000 C.3     1  UNL1        0.1390
      7 C           4.8191   -1.0572    0.0000 C.3     1  UNL1        0.0303
      8 C           3.7486    2.2373    0.0000 C.3     1  UNL1       -0.0180
      9 C           4.6997    2.5464    0.0000 C.3     1  UNL1       -0.0332
     10 C           3.8680   -1.3662    0.0000 C.3     1  UNL1       -0.0388
     11 C           2.7976    1.9283    0.0000 C.3     1  UNL1       -0.0318
     12 C           5.6813   -1.5520    0.0000 C.2     1  UNL1        0.0362
     13 C           3.1249   -0.6971    0.0000 C.3     1  UNL1       -0.0313
     14 C           6.4194   -0.8862    0.0000 C.2     1  UNL1        0.3353
     15 C           2.5896    0.9502    0.0000 C.2     1  UNL1       -0.0849
     16 C           3.3328    0.2810    0.0000 C.2     1  UNL1       -0.0765
     17 C           5.7875   -2.5464    0.0000 C.2     1  UNL1       -0.0883
     18 C           3.8891    0.0563    0.0000 C.3     1  UNL1       -0.0438
     19 H           3.7152   -0.0417    0.0000 H       1  UNL1        0.0662
     20 H           5.2907    0.7290    0.0000 H       1  UNL1        0.0767
     21 H           4.7313   -1.9027    0.0000 H       1  UNL1        0.0388
     22 H           4.2372    2.6190    0.0000 H       1  UNL1        0.0297
     23 H           3.4576    2.7848    0.0000 H       1  UNL1        0.0297
     24 H           5.3061    2.4174    0.0000 H       1  UNL1        0.0258
     25 H           4.8286    3.1528    0.0000 H       1  UNL1        0.0258
     26 H           4.0932    2.6753    0.0000 H       1  UNL1        0.0258
     27 H           3.3795   -1.7479    0.0000 H       1  UNL1        0.0275
     28 H           4.1591   -1.9137    0.0000 H       1  UNL1        0.0275
     29 H           2.7113    2.5423    0.0000 H       1  UNL1        0.0308
     30 H           2.1779    1.9500    0.0000 H       1  UNL1        0.0308
     31 H           2.5500   -0.4648    0.0000 H       1  UNL1        0.0310
     32 H           2.7963   -1.2229    0.0000 H       1  UNL1        0.0310
     33 H           2.0000    0.7586    0.0000 H       1  UNL1        0.0572
     34 H           5.2866   -2.9116    0.0000 H       1  UNL1        0.0540
     35 H           6.3544   -2.7976    0.0000 H       1  UNL1        0.0540
     36 H           3.6568   -0.5186    0.0000 H       1  UNL1        0.0274
     37 H           4.4640   -0.1760    0.0000 H       1  UNL1        0.0274
     38 H           4.1214    0.6311    0.0000 H       1  UNL1        0.0274
@<TRIPOS>BOND
     1     1     4    1
     2     1     5    1
     3     2     6    1
     4     2    14    1
     5     3    14    2
     6     4     5    1
     7     4     8    1
     8     4     9    1
     9     5     6    1
    10     5    19    1
    11     6     7    1
    12     6    20    1
    13     7    10    1
    14     7    12    1
    15     7    21    1
    16     8    11    1
    17     8    22    1
    18     8    23    1
    19     9    24    1
    20     9    25    1
    21     9    26    1
    22    10    13    1
    23    10    27    1
    24    10    28    1
    25    11    15    1
    26    11    29    1
    27    11    30    1
    28    12    14    1
    29    12    17    2
    30    13    16    1
    31    13    31    1
    32    13    32    1
    33    15    16    2
    34    15    33    1
    35    16    18    1
    36    17    34    1
    37    17    35    1
    38    18    36    1
    39    18    37    1
    40    18    38    1
