@<TRIPOS>MOLECULE
IMPHY008063
 35 38 0 0 0
SMALL
GASTEIGER

@<TRIPOS>ATOM
      1 O           2.8718    0.2548    0.0000 O.3     1  UNL1       -0.4907
      2 O           4.6298   -2.8176    0.0000 O.3     1  UNL1       -0.4906
      3 O           2.8560   -1.7934    0.0000 O.3     1  UNL1       -0.5009
      4 O           6.9733   -2.2842    0.0000 O.2     1  UNL1       -0.2697
      5 N           6.9919   -0.5267    0.0000 N.am    1  UNL1       -0.2808
      6 C           5.5080   -0.2483    0.0000 C.ar    1  UNL1        0.0233
      7 C           4.6419    0.2517    0.0000 C.ar    1  UNL1        0.0379
      8 C           6.3740    0.2517    0.0000 C.ar    1  UNL1        0.0430
      9 C           5.5240   -1.2898    0.0000 C.ar    1  UNL1        0.0919
     10 C           4.6419    1.2517    0.0000 C.ar    1  UNL1       -0.0064
     11 C           5.5080    1.7517    0.0000 C.ar    1  UNL1       -0.0154
     12 C           3.7319   -0.2552    0.0000 C.ar    1  UNL1        0.1733
     13 C           6.3740    1.2517    0.0000 C.ar    1  UNL1       -0.0321
     14 C           4.6260   -1.8176    0.0000 C.ar    1  UNL1        0.1778
     15 C           6.5120   -1.3970    0.0000 C.2     1  UNL1        0.2526
     16 C           3.7239   -1.2968    0.0000 C.ar    1  UNL1        0.2024
     17 C           3.7319    1.7585    0.0000 C.ar    1  UNL1       -0.0533
     18 C           5.5240    2.7932    0.0000 C.ar    1  UNL1       -0.0540
     19 C           3.7239    2.8001    0.0000 C.ar    1  UNL1       -0.0611
     20 C           4.6260    3.3209    0.0000 C.ar    1  UNL1       -0.0612
     21 C           2.0000   -0.2352    0.0000 C.3     1  UNL1        0.0790
     22 C           3.7658   -3.3209    0.0000 C.3     1  UNL1        0.0790
     23 H           6.9109    1.5617    0.0000 H       1  UNL1        0.0642
     24 H           7.6098   -0.4750    0.0000 H       1  UNL1        0.1552
     25 H           3.1986    1.4423    0.0000 H       1  UNL1        0.0624
     26 H           6.0645    3.0969    0.0000 H       1  UNL1        0.0624
     27 H           3.1858    3.1080    0.0000 H       1  UNL1        0.0618
     28 H           4.6284    3.9409    0.0000 H       1  UNL1        0.0618
     29 H           2.8536   -2.4134    0.0000 H       1  UNL1        0.2924
     30 H           1.6962    0.3053    0.0000 H       1  UNL1        0.0660
     31 H           1.4595   -0.5389    0.0000 H       1  UNL1        0.0660
     32 H           2.3038   -0.7756    0.0000 H       1  UNL1        0.0660
     33 H           3.4537   -2.7852    0.0000 H       1  UNL1        0.0660
     34 H           3.2300   -3.6330    0.0000 H       1  UNL1        0.0660
     35 H           4.0778   -3.8567    0.0000 H       1  UNL1        0.0660
@<TRIPOS>BOND
     1     1    12    1
     2     1    21    1
     3     2    14    1
     4     2    22    1
     5     3    16    1
     6     3    29    1
     7     4    15    2
     8     5     8    1
     9     5    15   am
    10     5    24    1
    11     6     7   ar
    12     6     8   ar
    13     6     9   ar
    14     7    10   ar
    15     7    12   ar
    16     8    13   ar
    17     9    14   ar
    18     9    15    1
    19    10    11   ar
    20    10    17   ar
    21    11    13   ar
    22    11    18   ar
    23    12    16   ar
    24    13    23    1
    25    14    16   ar
    26    17    19   ar
    27    17    25    1
    28    18    20   ar
    29    18    26    1
    30    19    20   ar
    31    19    27    1
    32    20    28    1
    33    21    30    1
    34    21    31    1
    35    21    32    1
    36    22    33    1
    37    22    34    1
    38    22    35    1
