@<TRIPOS>MOLECULE
IMPHY015215
 41 40 0 0 0
SMALL
GASTEIGER

@<TRIPOS>ATOM
      1 C           3.7320   -0.2500    0.0000 C.3     1  UNL1       -0.0413
      2 C           5.4641   -0.2500    0.0000 C.3     1  UNL1       -0.0436
      3 C           4.5981    0.2500    0.0000 C.3     1  UNL1       -0.0476
      4 C           2.8660    0.2500    0.0000 C.3     1  UNL1       -0.0441
      5 C           6.3301    0.2500    0.0000 C.3     1  UNL1       -0.0505
      6 C           7.1962   -0.2500    0.0000 C.3     1  UNL1       -0.0528
      7 C           3.7320   -1.2500    0.0000 C.3     1  UNL1       -0.0622
      8 C           5.4641   -1.2500    0.0000 C.3     1  UNL1       -0.0624
      9 C           2.0000   -0.2500    0.0000 C.3     1  UNL1       -0.0624
     10 C           2.8660    1.2500    0.0000 C.3     1  UNL1       -0.0624
     11 C           8.0622    0.2500    0.0000 C.3     1  UNL1       -0.0533
     12 C           8.9282   -0.2500    0.0000 C.3     1  UNL1       -0.0559
     13 C           9.7942    0.2500    0.0000 C.3     1  UNL1       -0.0653
     14 H           4.2690   -0.5600    0.0000 H       1  UNL1        0.0301
     15 H           6.0010   -0.5600    0.0000 H       1  UNL1        0.0298
     16 H           4.9966    0.7249    0.0000 H       1  UNL1        0.0271
     17 H           4.1996    0.7249    0.0000 H       1  UNL1        0.0271
     18 H           2.8660   -0.3700    0.0000 H       1  UNL1        0.0298
     19 H           6.7287    0.7249    0.0000 H       1  UNL1        0.0268
     20 H           5.9316    0.7249    0.0000 H       1  UNL1        0.0268
     21 H           6.7976   -0.7249    0.0000 H       1  UNL1        0.0265
     22 H           7.5947   -0.7249    0.0000 H       1  UNL1        0.0265
     23 H           3.1120   -1.2500    0.0000 H       1  UNL1        0.0233
     24 H           3.7320   -1.8700    0.0000 H       1  UNL1        0.0233
     25 H           4.3520   -1.2500    0.0000 H       1  UNL1        0.0233
     26 H           4.8441   -1.2500    0.0000 H       1  UNL1        0.0232
     27 H           5.4641   -1.8700    0.0000 H       1  UNL1        0.0232
     28 H           6.0841   -1.2500    0.0000 H       1  UNL1        0.0232
     29 H           1.6900    0.2869    0.0000 H       1  UNL1        0.0232
     30 H           1.4631   -0.5600    0.0000 H       1  UNL1        0.0232
     31 H           2.3100   -0.7869    0.0000 H       1  UNL1        0.0232
     32 H           3.4860    1.2500    0.0000 H       1  UNL1        0.0232
     33 H           2.8660    1.8700    0.0000 H       1  UNL1        0.0232
     34 H           2.2460    1.2500    0.0000 H       1  UNL1        0.0232
     35 H           8.4607    0.7249    0.0000 H       1  UNL1        0.0265
     36 H           7.6636    0.7249    0.0000 H       1  UNL1        0.0265
     37 H           8.5297   -0.7249    0.0000 H       1  UNL1        0.0263
     38 H           9.3267   -0.7249    0.0000 H       1  UNL1        0.0263
     39 H          10.1042   -0.2869    0.0000 H       1  UNL1        0.0230
     40 H          10.3312    0.5600    0.0000 H       1  UNL1        0.0230
     41 H           9.4842    0.7869    0.0000 H       1  UNL1        0.0230
@<TRIPOS>BOND
     1     1     3    1
     2     1     4    1
     3     1     7    1
     4     1    14    1
     5     2     3    1
     6     2     5    1
     7     2     8    1
     8     2    15    1
     9     3    16    1
    10     3    17    1
    11     4     9    1
    12     4    10    1
    13     4    18    1
    14     5     6    1
    15     5    19    1
    16     5    20    1
    17     6    11    1
    18     6    21    1
    19     6    22    1
    20     7    23    1
    21     7    24    1
    22     7    25    1
    23     8    26    1
    24     8    27    1
    25     8    28    1
    26     9    29    1
    27     9    30    1
    28     9    31    1
    29    10    32    1
    30    10    33    1
    31    10    34    1
    32    11    12    1
    33    11    35    1
    34    11    36    1
    35    12    13    1
    36    12    37    1
    37    12    38    1
    38    13    39    1
    39    13    40    1
    40    13    41    1
