@<TRIPOS>MOLECULE
IMPHY017684
 19 18 0 0 0
SMALL
GASTEIGER

@<TRIPOS>ATOM
      1 O           2.8660    0.2500    0.0000 O.3     1  UNL1       -0.4679
      2 O           6.3301    1.2500    0.0000 O.2     1  UNL1       -0.2977
      3 O           3.7320   -1.2500    0.0000 O.2     1  UNL1       -0.2509
      4 C           5.4641   -0.2500    0.0000 C.3     1  UNL1        0.0156
      5 C           4.5981    0.2500    0.0000 C.3     1  UNL1        0.0516
      6 C           6.3301    0.2500    0.0000 C.2     1  UNL1        0.1308
      7 C           3.7320   -0.2500    0.0000 C.2     1  UNL1        0.3072
      8 C           7.1962   -0.2500    0.0000 C.3     1  UNL1       -0.0061
      9 C           2.0000   -0.2500    0.0000 C.3     1  UNL1        0.0817
     10 H           5.0656   -0.7249    0.0000 H       1  UNL1        0.0347
     11 H           5.8626   -0.7249    0.0000 H       1  UNL1        0.0347
     12 H           4.9966    0.7249    0.0000 H       1  UNL1        0.0382
     13 H           4.1996    0.7249    0.0000 H       1  UNL1        0.0382
     14 H           6.8862   -0.7869    0.0000 H       1  UNL1        0.0306
     15 H           7.7331   -0.5600    0.0000 H       1  UNL1        0.0306
     16 H           7.5062    0.2869    0.0000 H       1  UNL1        0.0306
     17 H           1.6900    0.2869    0.0000 H       1  UNL1        0.0661
     18 H           1.4631   -0.5600    0.0000 H       1  UNL1        0.0661
     19 H           2.3100   -0.7869    0.0000 H       1  UNL1        0.0661
@<TRIPOS>BOND
     1     1     7    1
     2     1     9    1
     3     2     6    2
     4     3     7    2
     5     4     5    1
     6     4     6    1
     7     4    10    1
     8     4    11    1
     9     5     7    1
    10     5    12    1
    11     5    13    1
    12     6     8    1
    13     8    14    1
    14     8    15    1
    15     8    16    1
    16     9    17    1
    17     9    18    1
    18     9    19    1
