@<TRIPOS>MOLECULE
IMPHY002777
 44 48 0 0 0
SMALL
GASTEIGER

@<TRIPOS>ATOM
      1 O           5.7516   -2.3965    0.0000 O.3     1  UNL1       -0.3466
      2 O           4.2570   -1.4260    0.0000 O.3     1  UNL1       -0.3664
      3 O           3.1961    2.6941    0.0000 O.3     1  UNL1       -0.4526
      4 O           2.0000    1.6171    0.0000 O.3     1  UNL1       -0.4526
      5 O          11.2446   -0.8893    0.0000 O.3     1  UNL1       -0.4526
      6 O          11.2446   -2.4988    0.0000 O.3     1  UNL1       -0.4526
      7 C           5.9207   -0.7873    0.0000 C.3     1  UNL1        0.0374
      8 C           5.2516   -1.5305    0.0000 C.3     1  UNL1        0.1634
      9 C           6.8342   -1.1941    0.0000 C.2     1  UNL1       -0.0354
     10 C           5.7128    0.1908    0.0000 C.3     1  UNL1       -0.0163
     11 C           6.7297   -2.1886    0.0000 C.3     1  UNL1        0.0725
     12 C           4.7617    0.4998    0.0000 C.ar    1  UNL1       -0.0429
     13 C           7.7003   -0.6941    0.0000 C.2     1  UNL1       -0.0526
     14 C           4.5538    1.4780    0.0000 C.ar    1  UNL1       -0.0129
     15 C           8.5663   -1.1941    0.0000 C.ar    1  UNL1       -0.0213
     16 C           4.0186   -0.1693    0.0000 C.ar    1  UNL1       -0.0549
     17 C           3.6028    1.7870    0.0000 C.ar    1  UNL1        0.1665
     18 C           2.8596    1.1179    0.0000 C.ar    1  UNL1        0.1662
     19 C           3.0675    0.1397    0.0000 C.ar    1  UNL1       -0.0159
     20 C           9.4323   -0.6941    0.0000 C.ar    1  UNL1       -0.0090
     21 C           8.5663   -2.1941    0.0000 C.ar    1  UNL1       -0.0509
     22 C          10.2983   -1.1941    0.0000 C.ar    1  UNL1        0.1668
     23 C          10.2983   -2.1941    0.0000 C.ar    1  UNL1        0.1663
     24 C           9.4323   -2.6941    0.0000 C.ar    1  UNL1       -0.0156
     25 C           2.2075    2.5893    0.0000 C.3     1  UNL1        0.2332
     26 C          11.8282   -1.6941    0.0000 C.3     1  UNL1        0.2332
     27 H           6.4025   -0.3972    0.0000 H       1  UNL1        0.0399
     28 H           5.0294   -0.9517    0.0000 H       1  UNL1        0.0914
     29 H           6.3324    0.2124    0.0000 H       1  UNL1        0.0321
     30 H           5.7991    0.8048    0.0000 H       1  UNL1        0.0321
     31 H           6.7945   -2.8052    0.0000 H       1  UNL1        0.0608
     32 H           7.3497   -2.1886    0.0000 H       1  UNL1        0.0608
     33 H           7.7003   -0.0741    0.0000 H       1  UNL1        0.0624
     34 H           5.0146    1.8928    0.0000 H       1  UNL1        0.0658
     35 H           4.1475   -0.7758    0.0000 H       1  UNL1        0.0621
     36 H           3.8926   -1.9276    0.0000 H       1  UNL1        0.2125
     37 H           2.6068   -0.2751    0.0000 H       1  UNL1        0.0655
     38 H           9.4323   -0.0741    0.0000 H       1  UNL1        0.0661
     39 H           8.0294   -2.5041    0.0000 H       1  UNL1        0.0625
     40 H           9.4323   -3.3141    0.0000 H       1  UNL1        0.0655
     41 H           2.2073    3.2093    0.0000 H       1  UNL1        0.1166
     42 H           1.5909    2.6543    0.0000 H       1  UNL1        0.1166
     43 H          12.2890   -2.1088    0.0000 H       1  UNL1        0.1166
     44 H          12.2890   -1.2794    0.0000 H       1  UNL1        0.1166
@<TRIPOS>BOND
     1     1     8    1
     2     1    11    1
     3     2     8    1
     4     2    36    1
     5     3    17    1
     6     3    25    1
     7     4    18    1
     8     4    25    1
     9     5    22    1
    10     5    26    1
    11     6    23    1
    12     6    26    1
    13     7     8    1
    14     7     9    1
    15     7    10    1
    16     7    27    1
    17     8    28    1
    18     9    11    1
    19     9    13    2
    20    10    12    1
    21    10    29    1
    22    10    30    1
    23    11    31    1
    24    11    32    1
    25    12    14   ar
    26    12    16   ar
    27    13    15    1
    28    13    33    1
    29    14    17   ar
    30    14    34    1
    31    15    20   ar
    32    15    21   ar
    33    16    19   ar
    34    16    35    1
    35    17    18   ar
    36    18    19   ar
    37    19    37    1
    38    20    22   ar
    39    20    38    1
    40    21    24   ar
    41    21    39    1
    42    22    23   ar
    43    23    24   ar
    44    24    40    1
    45    25    41    1
    46    25    42    1
    47    26    43    1
    48    26    44    1
