@<TRIPOS>MOLECULE
IMPHY001241
 46 49 0 0 0
SMALL
GASTEIGER

@<TRIPOS>ATOM
      1 O          12.2703    0.0547    0.0000 O.3     1  UNL1       -0.4526
      2 O           2.5836   -0.0547    0.0000 O.3     1  UNL1       -0.4526
      3 O          12.2703   -1.5547    0.0000 O.3     1  UNL1       -0.4526
      4 O           2.5836    1.5547    0.0000 O.3     1  UNL1       -0.4526
      5 C           7.8600   -0.2500    0.0000 C.3     1  UNL1       -0.0370
      6 C           6.9939    0.2500    0.0000 C.3     1  UNL1       -0.0370
      7 C           8.7260    0.2500    0.0000 C.3     1  UNL1       -0.0247
      8 C           6.1279   -0.2500    0.0000 C.3     1  UNL1       -0.0247
      9 C           7.8600   -1.2500    0.0000 C.3     1  UNL1       -0.0619
     10 C           6.9939    1.2500    0.0000 C.3     1  UNL1       -0.0619
     11 C           9.5920   -0.2500    0.0000 C.ar    1  UNL1       -0.0434
     12 C           5.2619    0.2500    0.0000 C.ar    1  UNL1       -0.0434
     13 C          10.4580    0.2500    0.0000 C.ar    1  UNL1       -0.0130
     14 C           4.3958   -0.2500    0.0000 C.ar    1  UNL1       -0.0130
     15 C           9.5920   -1.2500    0.0000 C.ar    1  UNL1       -0.0549
     16 C           5.2619    1.2500    0.0000 C.ar    1  UNL1       -0.0549
     17 C          11.3241   -0.2500    0.0000 C.ar    1  UNL1        0.1665
     18 C           3.5298    0.2500    0.0000 C.ar    1  UNL1        0.1665
     19 C          11.3241   -1.2500    0.0000 C.ar    1  UNL1        0.1662
     20 C           3.5298    1.2500    0.0000 C.ar    1  UNL1        0.1662
     21 C          10.4580   -1.7500    0.0000 C.ar    1  UNL1       -0.0159
     22 C           4.3958    1.7500    0.0000 C.ar    1  UNL1       -0.0159
     23 C          12.8539   -0.7500    0.0000 C.3     1  UNL1        0.2332
     24 C           2.0000    0.7500    0.0000 C.3     1  UNL1        0.2332
     25 H           7.3230   -0.5600    0.0000 H       1  UNL1        0.0304
     26 H           7.5309    0.5600    0.0000 H       1  UNL1        0.0304
     27 H           9.1245    0.7249    0.0000 H       1  UNL1        0.0316
     28 H           8.3274    0.7249    0.0000 H       1  UNL1        0.0316
     29 H           5.7294   -0.7249    0.0000 H       1  UNL1        0.0316
     30 H           6.5264   -0.7249    0.0000 H       1  UNL1        0.0316
     31 H           7.2400   -1.2500    0.0000 H       1  UNL1        0.0233
     32 H           7.8600   -1.8700    0.0000 H       1  UNL1        0.0233
     33 H           8.4800   -1.2500    0.0000 H       1  UNL1        0.0233
     34 H           7.6139    1.2500    0.0000 H       1  UNL1        0.0233
     35 H           6.9939    1.8700    0.0000 H       1  UNL1        0.0233
     36 H           6.3739    1.2500    0.0000 H       1  UNL1        0.0233
     37 H          10.4580    0.8700    0.0000 H       1  UNL1        0.0658
     38 H           4.3958   -0.8700    0.0000 H       1  UNL1        0.0658
     39 H           9.0551   -1.5600    0.0000 H       1  UNL1        0.0621
     40 H           5.7988    1.5600    0.0000 H       1  UNL1        0.0621
     41 H          10.4580   -2.3700    0.0000 H       1  UNL1        0.0655
     42 H           4.3958    2.3700    0.0000 H       1  UNL1        0.0655
     43 H          13.3148   -1.1647    0.0000 H       1  UNL1        0.1166
     44 H          13.3148   -0.3353    0.0000 H       1  UNL1        0.1166
     45 H           1.5391    1.1647    0.0000 H       1  UNL1        0.1166
     46 H           1.5391    0.3353    0.0000 H       1  UNL1        0.1166
@<TRIPOS>BOND
     1     1    17    1
     2     1    23    1
     3     2    18    1
     4     2    24    1
     5     3    19    1
     6     3    23    1
     7     4    20    1
     8     4    24    1
     9     5     6    1
    10     5     7    1
    11     5     9    1
    12     5    25    1
    13     6     8    1
    14     6    10    1
    15     6    26    1
    16     7    11    1
    17     7    27    1
    18     7    28    1
    19     8    12    1
    20     8    29    1
    21     8    30    1
    22     9    31    1
    23     9    32    1
    24     9    33    1
    25    10    34    1
    26    10    35    1
    27    10    36    1
    28    11    13   ar
    29    11    15   ar
    30    12    14   ar
    31    12    16   ar
    32    13    17   ar
    33    13    37    1
    34    14    18   ar
    35    14    38    1
    36    15    21   ar
    37    15    39    1
    38    16    22   ar
    39    16    40    1
    40    17    19   ar
    41    18    20   ar
    42    19    21   ar
    43    20    22   ar
    44    21    41    1
    45    22    42    1
    46    23    43    1
    47    23    44    1
    48    24    45    1
    49    24    46    1
