@<TRIPOS>MOLECULE
IMPHY012937
 62 64 0 0 0
SMALL
GASTEIGER

@<TRIPOS>ATOM
      1 O           9.7942   -0.8450    0.0000 O.3     1  UNL1       -0.3394
      2 O           8.0622   -2.8450    0.0000 O.3     1  UNL1       -0.4529
      3 O          11.5263   -0.8450    0.0000 O.3     1  UNL1       -0.3484
      4 O           9.7942   -3.8450    0.0000 O.3     1  UNL1       -0.3853
      5 O          11.5263   -2.8450    0.0000 O.3     1  UNL1       -0.3841
      6 O           8.0622    0.1550    0.0000 O.3     1  UNL1       -0.3923
      7 O           7.1962   -1.3450    0.0000 O.2     1  UNL1       -0.2456
      8 O          12.3923    4.6550    0.0000 O.3     1  UNL1       -0.5068
      9 O           2.0000   -2.3450    0.0000 O.3     1  UNL1       -0.4914
     10 O           2.0000   -4.3450    0.0000 O.3     1  UNL1       -0.5033
     11 C           8.9282   -2.3450    0.0000 C.3     1  UNL1        0.1598
     12 C           9.7942   -2.8450    0.0000 C.3     1  UNL1        0.1251
     13 C           8.9282   -1.3450    0.0000 C.3     1  UNL1        0.1240
     14 C          10.6603   -2.3450    0.0000 C.3     1  UNL1        0.1352
     15 C          10.6603   -1.3450    0.0000 C.3     1  UNL1        0.1880
     16 C           8.0622   -0.8450    0.0000 C.3     1  UNL1        0.0741
     17 C          11.5263    0.1550    0.0000 C.3     1  UNL1        0.0547
     18 C          12.3923    0.6550    0.0000 C.3     1  UNL1       -0.0040
     19 C           7.1962   -2.3450    0.0000 C.2     1  UNL1        0.3324
     20 C          12.3923    1.6550    0.0000 C.ar    1  UNL1       -0.0450
     21 C           6.3301   -2.8450    0.0000 C.2     1  UNL1        0.0231
     22 C          11.5263    2.1550    0.0000 C.ar    1  UNL1       -0.0551
     23 C          13.2583    2.1550    0.0000 C.ar    1  UNL1       -0.0551
     24 C           5.4641   -2.3450    0.0000 C.2     1  UNL1       -0.0477
     25 C          11.5263    3.1550    0.0000 C.ar    1  UNL1       -0.0199
     26 C          13.2583    3.1550    0.0000 C.ar    1  UNL1       -0.0199
     27 C           4.5981   -2.8450    0.0000 C.ar    1  UNL1       -0.0211
     28 C          12.3923    3.6550    0.0000 C.ar    1  UNL1        0.1169
     29 C           3.7320   -2.3450    0.0000 C.ar    1  UNL1       -0.0092
     30 C           4.5981   -3.8450    0.0000 C.ar    1  UNL1       -0.0509
     31 C           2.8660   -2.8450    0.0000 C.ar    1  UNL1        0.1618
     32 C           3.7320   -4.3450    0.0000 C.ar    1  UNL1       -0.0160
     33 C           2.8660   -3.8450    0.0000 C.ar    1  UNL1        0.1585
     34 C           2.0000   -1.3450    0.0000 C.3     1  UNL1        0.0790
     35 H           8.9282   -2.9650    0.0000 H       1  UNL1        0.0788
     36 H          10.3312   -3.1550    0.0000 H       1  UNL1        0.0659
     37 H           8.9282   -0.7250    0.0000 H       1  UNL1        0.0658
     38 H          10.6603   -2.9650    0.0000 H       1  UNL1        0.0671
     39 H          11.1972   -1.6550    0.0000 H       1  UNL1        0.0937
     40 H           7.4516   -0.7373    0.0000 H       1  UNL1        0.0584
     41 H           7.8501   -1.4276    0.0000 H       1  UNL1        0.0584
     42 H          10.3312   -4.1550    0.0000 H       1  UNL1        0.2101
     43 H          12.0632   -2.5350    0.0000 H       1  UNL1        0.2101
     44 H          11.3142    0.7376    0.0000 H       1  UNL1        0.0564
     45 H          10.9157    0.0473    0.0000 H       1  UNL1        0.0564
     46 H          12.6044    0.0724    0.0000 H       1  UNL1        0.0335
     47 H          13.0029    0.7627    0.0000 H       1  UNL1        0.0335
     48 H           7.5252    0.4650    0.0000 H       1  UNL1        0.2095
     49 H           6.3301   -3.4650    0.0000 H       1  UNL1        0.0689
     50 H          10.9893    1.8450    0.0000 H       1  UNL1        0.0621
     51 H          13.7953    1.8450    0.0000 H       1  UNL1        0.0621
     52 H           5.4641   -1.7250    0.0000 H       1  UNL1        0.0626
     53 H          10.9893    3.4650    0.0000 H       1  UNL1        0.0654
     54 H          13.7953    3.4650    0.0000 H       1  UNL1        0.0654
     55 H           3.7320   -1.7250    0.0000 H       1  UNL1        0.0661
     56 H           5.1350   -4.1550    0.0000 H       1  UNL1        0.0625
     57 H           3.7320   -4.9650    0.0000 H       1  UNL1        0.0655
     58 H          12.9292    4.9650    0.0000 H       1  UNL1        0.2921
     59 H           2.0000   -4.9650    0.0000 H       1  UNL1        0.2923
     60 H           2.6200   -1.3450    0.0000 H       1  UNL1        0.0660
     61 H           2.0000   -0.7250    0.0000 H       1  UNL1        0.0660
     62 H           1.3800   -1.3450    0.0000 H       1  UNL1        0.0660
@<TRIPOS>BOND
     1     1    13    1
     2     1    15    1
     3    11     2    1
     4     2    19    1
     5    15     3    1
     6     3    17    1
     7    12     4    1
     8     4    42    1
     9    14     5    1
    10     5    43    1
    11     6    16    1
    12     6    48    1
    13     7    19    2
    14     8    28    1
    15     8    58    1
    16     9    31    1
    17     9    34    1
    18    10    33    1
    19    10    59    1
    20    11    12    1
    21    11    13    1
    22    11    35    1
    23    12    14    1
    24    12    36    1
    25    13    16    1
    26    13    37    1
    27    14    15    1
    28    14    38    1
    29    15    39    1
    30    16    40    1
    31    16    41    1
    32    17    18    1
    33    17    44    1
    34    17    45    1
    35    18    20    1
    36    18    46    1
    37    18    47    1
    38    19    21    1
    39    20    22   ar
    40    20    23   ar
    41    21    24    2
    42    21    49    1
    43    22    25   ar
    44    22    50    1
    45    23    26   ar
    46    23    51    1
    47    24    27    1
    48    24    52    1
    49    25    28   ar
    50    25    53    1
    51    26    28   ar
    52    26    54    1
    53    27    29   ar
    54    27    30   ar
    55    29    31   ar
    56    29    55    1
    57    30    32   ar
    58    30    56    1
    59    31    33   ar
    60    32    33   ar
    61    32    57    1
    62    34    60    1
    63    34    61    1
    64    34    62    1
