@<TRIPOS>MOLECULE
IMPHY011909
 72 76 0 0 0
SMALL
GASTEIGER

@<TRIPOS>ATOM
      1 O           6.5251   -2.4776    0.0000 O.3     1  UNL1       -0.3876
      2 O           7.1640    0.7788    0.0000 O.3     1  UNL1       -0.3850
      3 O           8.8678   -0.3965    0.0000 O.3     1  UNL1       -0.3823
      4 O           8.9886    1.9946    0.0000 O.3     1  UNL1       -0.4548
      5 O           2.9755   -0.4205    0.0000 O.2     1  UNL1       -0.2918
      6 O           9.6958    3.5757    0.0000 O.2     1  UNL1       -0.2453
      7 C           6.5251   -0.4776    0.0000 C.3     1  UNL1        0.0285
      8 C           6.5251   -1.4776    0.0000 C.3     1  UNL1        0.0776
      9 C           7.4714   -0.1728    0.0000 C.3     1  UNL1        0.1058
     10 C           5.6591   -1.9776    0.0000 C.3     1  UNL1       -0.0041
     11 C           4.7931   -1.4776    0.0000 C.3     1  UNL1       -0.0191
     12 C           7.4714   -1.7823    0.0000 C.3     1  UNL1       -0.0204
     13 C           5.6591    0.0224    0.0000 C.3     1  UNL1       -0.0420
     14 C           8.0550   -0.9776    0.0000 C.3     1  UNL1       -0.0179
     15 C           4.7931   -0.4776    0.0000 C.3     1  UNL1       -0.0480
     16 C           8.2814    0.4136    0.0000 C.3     1  UNL1        0.1293
     17 C           3.8831   -1.9844    0.0000 C.3     1  UNL1        0.0545
     18 C           6.1831    0.4621    0.0000 C.3     1  UNL1       -0.0542
     19 C           5.6752   -3.0191    0.0000 C.3     1  UNL1       -0.0287
     20 C           3.8751   -3.0260    0.0000 C.2     1  UNL1       -0.0561
     21 C           9.0914    0.9999    0.0000 C.3     1  UNL1        0.1380
     22 C           4.7771   -3.5468    0.0000 C.2     1  UNL1       -0.0832
     23 C           7.6950    1.2236    0.0000 C.3     1  UNL1       -0.0298
     24 C           3.8908   -0.9844    0.0000 C.3     1  UNL1       -0.0485
     25 C           2.9562   -1.4203    0.0000 C.2     1  UNL1        0.1659
     26 C           2.9396   -3.5757    0.0000 C.3     1  UNL1       -0.0122
     27 C          10.0043    0.5916    0.0000 C.3     1  UNL1        0.0089
     28 C           2.0084   -1.9483    0.0000 C.2     1  UNL1       -0.0220
     29 C           2.0000   -3.0332    0.0000 C.2     1  UNL1       -0.0767
     30 C          10.8143    1.1780    0.0000 C.2     1  UNL1       -0.0594
     31 C           9.7986    2.5810    0.0000 C.2     1  UNL1        0.3352
     32 C          10.7115    2.1727    0.0000 C.2     1  UNL1        0.0326
     33 C          11.7271    0.7697    0.0000 C.3     1  UNL1       -0.0429
     34 C          11.5215    2.7591    0.0000 C.3     1  UNL1       -0.0330
     35 H           6.3985   -2.3969    0.0000 H       1  UNL1        0.0335
     36 H           5.5292   -1.0526    0.0000 H       1  UNL1        0.0317
     37 H           7.2203   -2.3492    0.0000 H       1  UNL1        0.0294
     38 H           8.0087   -2.0915    0.0000 H       1  UNL1        0.0294
     39 H           6.0576    0.4974    0.0000 H       1  UNL1        0.0272
     40 H           5.2606    0.4974    0.0000 H       1  UNL1        0.0272
     41 H           8.5158   -1.3923    0.0000 H       1  UNL1        0.0295
     42 H           8.5158   -0.5628    0.0000 H       1  UNL1        0.0295
     43 H           4.5810    0.1051    0.0000 H       1  UNL1        0.0269
     44 H           4.1825   -0.5852    0.0000 H       1  UNL1        0.0269
     45 H           6.7657    0.6742    0.0000 H       1  UNL1        0.0237
     46 H           5.9711    1.0447    0.0000 H       1  UNL1        0.0237
     47 H           5.6005    0.2501    0.0000 H       1  UNL1        0.0237
     48 H           5.8932   -3.5995    0.0000 H       1  UNL1        0.0311
     49 H           6.2843   -2.9036    0.0000 H       1  UNL1        0.0311
     50 H           7.0621   -2.7876    0.0000 H       1  UNL1        0.2102
     51 H           8.3155    1.3470    0.0000 H       1  UNL1        0.0767
     52 H           4.7795   -4.1668    0.0000 H       1  UNL1        0.0572
     53 H           6.6388    1.1082    0.0000 H       1  UNL1        0.2103
     54 H           8.1972    1.5872    0.0000 H       1  UNL1        0.0259
     55 H           7.3314    1.7258    0.0000 H       1  UNL1        0.0259
     56 H           7.1928    0.8600    0.0000 H       1  UNL1        0.0259
     57 H           4.5108   -0.9892    0.0000 H       1  UNL1        0.0242
     58 H           3.8956   -0.3645    0.0000 H       1  UNL1        0.0242
     59 H           3.2708   -0.9797    0.0000 H       1  UNL1        0.0242
     60 H           2.5423   -4.0517    0.0000 H       1  UNL1        0.0353
     61 H           3.3406   -4.0486    0.0000 H       1  UNL1        0.0353
     62 H           9.4845   -0.3327    0.0000 H       1  UNL1        0.2104
     63 H           9.6567    0.0782    0.0000 H       1  UNL1        0.0347
     64 H          10.4495    0.1602    0.0000 H       1  UNL1        0.0347
     65 H           1.4750   -1.6321    0.0000 H       1  UNL1        0.0649
     66 H           1.4619   -3.3412    0.0000 H       1  UNL1        0.0576
     67 H          11.4740    0.2037    0.0000 H       1  UNL1        0.0275
     68 H          12.2931    0.5165    0.0000 H       1  UNL1        0.0275
     69 H          11.9803    1.3356    0.0000 H       1  UNL1        0.0275
     70 H          11.8851    2.2569    0.0000 H       1  UNL1        0.0280
     71 H          12.0237    3.1226    0.0000 H       1  UNL1        0.0280
     72 H          11.1580    3.2613    0.0000 H       1  UNL1        0.0280
@<TRIPOS>BOND
     1     8     1    1
     2     1    50    1
     3     9     2    1
     4     2    53    1
     5    16     3    1
     6     3    62    1
     7     4    21    1
     8     4    31    1
     9     5    25    2
    10     6    31    2
    11     7     8    1
    12     7     9    1
    13     7    13    1
    14     7    18    1
    15     8    10    1
    16     8    12    1
    17     9    14    1
    18     9    16    1
    19    10    11    1
    20    10    19    1
    21    10    35    1
    22    11    15    1
    23    11    17    1
    24    11    36    1
    25    12    14    1
    26    12    37    1
    27    12    38    1
    28    13    15    1
    29    13    39    1
    30    13    40    1
    31    14    41    1
    32    14    42    1
    33    15    43    1
    34    15    44    1
    35    16    21    1
    36    16    23    1
    37    17    20    1
    38    17    24    1
    39    17    25    1
    40    18    45    1
    41    18    46    1
    42    18    47    1
    43    19    22    1
    44    19    48    1
    45    19    49    1
    46    20    22    2
    47    20    26    1
    48    21    27    1
    49    21    51    1
    50    22    52    1
    51    23    54    1
    52    23    55    1
    53    23    56    1
    54    24    57    1
    55    24    58    1
    56    24    59    1
    57    25    28    1
    58    26    29    1
    59    26    60    1
    60    26    61    1
    61    27    30    1
    62    27    63    1
    63    27    64    1
    64    28    29    2
    65    28    65    1
    66    29    66    1
    67    30    32    2
    68    30    33    1
    69    31    32    1
    70    32    34    1
    71    33    67    1
    72    33    68    1
    73    33    69    1
    74    34    70    1
    75    34    71    1
    76    34    72    1
