@<TRIPOS>MOLECULE
IMPHY006037
 16 15 0 0 0
SMALL
GASTEIGER

@<TRIPOS>ATOM
      1 O           2.0000   -0.0600    0.0000 O.2     1  UNL1       -0.3008
      2 C           3.7320   -0.0600    0.0000 C.3     1  UNL1        0.0114
      3 C           4.5981    0.4400    0.0000 C.3     1  UNL1       -0.0469
      4 C           3.7320   -1.0600    0.0000 C.3     1  UNL1       -0.0560
      5 C           5.4641   -0.0600    0.0000 C.3     1  UNL1       -0.0647
      6 C           2.8660    0.4400    0.0000 C.2     1  UNL1        0.1231
      7 H           3.7320    0.5600    0.0000 H       1  UNL1        0.0372
      8 H           4.9966    0.9149    0.0000 H       1  UNL1        0.0269
      9 H           4.1996    0.9149    0.0000 H       1  UNL1        0.0269
     10 H           3.1120   -1.0600    0.0000 H       1  UNL1        0.0236
     11 H           3.7320   -1.6800    0.0000 H       1  UNL1        0.0236
     12 H           4.3520   -1.0600    0.0000 H       1  UNL1        0.0236
     13 H           5.1541   -0.5969    0.0000 H       1  UNL1        0.0230
     14 H           6.0010   -0.3700    0.0000 H       1  UNL1        0.0230
     15 H           5.7741    0.4769    0.0000 H       1  UNL1        0.0230
     16 H           2.8660    1.0600    0.0000 H       1  UNL1        0.1029
@<TRIPOS>BOND
     1     1     6    2
     2     2     3    1
     3     2     4    1
     4     2     6    1
     5     2     7    1
     6     3     5    1
     7     3     8    1
     8     3     9    1
     9     4    10    1
    10     4    11    1
    11     4    12    1
    12     5    13    1
    13     5    14    1
    14     5    15    1
    15     6    16    1
