@<TRIPOS>MOLECULE
IMPHY006588
 19 19 0 0 0
SMALL
GASTEIGER

@<TRIPOS>ATOM
      1 O           4.2690   -2.0000    0.0000 O.3     1  UNL1       -0.4950
      2 O           2.5369    1.0000    0.0000 O.3     1  UNL1       -0.5060
      3 O           5.1350    2.5000    0.0000 O.2     1  UNL1       -0.2956
      4 C           4.2690   -1.0000    0.0000 C.ar    1  UNL1        0.1236
      5 C           4.2690    1.0000    0.0000 C.ar    1  UNL1        0.0558
      6 C           3.4030    0.5000    0.0000 C.ar    1  UNL1        0.1305
      7 C           3.4030   -0.5000    0.0000 C.ar    1  UNL1        0.0222
      8 C           5.1350   -0.5000    0.0000 C.ar    1  UNL1       -0.0191
      9 C           5.1350    0.5000    0.0000 C.ar    1  UNL1       -0.0446
     10 C           4.2690    2.0000    0.0000 C.2     1  UNL1        0.1537
     11 C           5.1350   -2.5000    0.0000 C.3     1  UNL1        0.0788
     12 H           2.8660   -0.8100    0.0000 H       1  UNL1        0.0691
     13 H           5.6720   -0.8100    0.0000 H       1  UNL1        0.0654
     14 H           5.6720    0.8100    0.0000 H       1  UNL1        0.0627
     15 H           3.7320    2.3100    0.0000 H       1  UNL1        0.1083
     16 H           4.8250   -3.0369    0.0000 H       1  UNL1        0.0660
     17 H           5.6720   -2.8100    0.0000 H       1  UNL1        0.0660
     18 H           5.4450   -1.9631    0.0000 H       1  UNL1        0.0660
     19 H           2.0000    0.6900    0.0000 H       1  UNL1        0.2922
@<TRIPOS>BOND
     1     1     4    1
     2     1    11    1
     3     2     6    1
     4     2    19    1
     5     3    10    2
     6     4     7   ar
     7     4     8   ar
     8     5     6   ar
     9     5     9   ar
    10     5    10    1
    11     6     7   ar
    12     7    12    1
    13     8     9   ar
    14     8    13    1
    15     9    14    1
    16    10    15    1
    17    11    16    1
    18    11    17    1
    19    11    18    1
