@<TRIPOS>MOLECULE
IMPHY012037
 28 28 0 0 0
SMALL
GASTEIGER

@<TRIPOS>ATOM
      1 O           2.5000   -1.3660    0.0000 O.3     1  UNL1       -0.4804
      2 O           4.0000   -2.2320    0.0000 O.2     1  UNL1       -0.2507
      3 C           4.8660    0.0000    0.0000 C.3     1  UNL1       -0.0144
      4 C           4.0000    0.5000    0.0000 C.3     1  UNL1       -0.0033
      5 C           4.0000   -0.5000    0.0000 C.3     1  UNL1        0.0687
      6 C           5.3660   -0.8660    0.0000 C.3     1  UNL1       -0.0585
      7 C           5.3660    0.8660    0.0000 C.3     1  UNL1       -0.0585
      8 C           3.5000    1.3660    0.0000 C.2     1  UNL1       -0.0809
      9 C           3.5000   -1.3660    0.0000 C.2     1  UNL1        0.3089
     10 C           2.5000    1.3660    0.0000 C.2     1  UNL1       -0.0793
     11 C           2.0000    2.2320    0.0000 C.3     1  UNL1       -0.0440
     12 C           2.0000    0.5000    0.0000 C.3     1  UNL1       -0.0440
     13 H           3.4011    0.3395    0.0000 H       1  UNL1        0.0356
     14 H           3.4011   -0.3395    0.0000 H       1  UNL1        0.0425
     15 H           4.8291   -1.1760    0.0000 H       1  UNL1        0.0235
     16 H           5.6760   -1.4030    0.0000 H       1  UNL1        0.0235
     17 H           5.9030   -0.5560    0.0000 H       1  UNL1        0.0235
     18 H           5.9030    0.5560    0.0000 H       1  UNL1        0.0235
     19 H           5.6760    1.4030    0.0000 H       1  UNL1        0.0235
     20 H           4.8291    1.1760    0.0000 H       1  UNL1        0.0235
     21 H           3.8100    1.9030    0.0000 H       1  UNL1        0.0575
     22 H           2.1900   -1.9030    0.0000 H       1  UNL1        0.2951
     23 H           2.5369    2.5420    0.0000 H       1  UNL1        0.0274
     24 H           1.6900    2.7690    0.0000 H       1  UNL1        0.0274
     25 H           1.4631    1.9220    0.0000 H       1  UNL1        0.0274
     26 H           1.4631    0.8100    0.0000 H       1  UNL1        0.0274
     27 H           1.6900   -0.0369    0.0000 H       1  UNL1        0.0274
     28 H           2.5369    0.1900    0.0000 H       1  UNL1        0.0274
@<TRIPOS>BOND
     1     1     9    1
     2     1    22    1
     3     2     9    2
     4     3     4    1
     5     3     5    1
     6     3     6    1
     7     3     7    1
     8     4     5    1
     9     4     8    1
    10     4    13    1
    11     5     9    1
    12     5    14    1
    13     6    15    1
    14     6    16    1
    15     6    17    1
    16     7    18    1
    17     7    19    1
    18     7    20    1
    19     8    10    2
    20     8    21    1
    21    10    11    1
    22    10    12    1
    23    11    23    1
    24    11    24    1
    25    11    25    1
    26    12    26    1
    27    12    27    1
    28    12    28    1
