@<TRIPOS>MOLECULE
IMPHY016814
 19 18 0 0 0
SMALL
GASTEIGER

@<TRIPOS>ATOM
      1 S           2.0000   -0.5000    0.0000 S.2     1  UNL1        0.0203
      2 N           3.7320    0.5000    0.0000 N.2     1  UNL1       -0.2346
      3 C           6.3301    0.0000    0.0000 C.3     1  UNL1       -0.0516
      4 C           5.4641    0.5000    0.0000 C.3     1  UNL1       -0.0327
      5 C           7.1962    0.5000    0.0000 C.3     1  UNL1       -0.0559
      6 C           4.5981    0.0000    0.0000 C.3     1  UNL1        0.0495
      7 C           8.0622   -0.0000    0.0000 C.3     1  UNL1       -0.0653
      8 C           2.8660   -0.0000    0.0000 C.1     1  UNL1        0.0358
      9 H           5.9316   -0.4749    0.0000 H       1  UNL1        0.0266
     10 H           6.7287   -0.4749    0.0000 H       1  UNL1        0.0266
     11 H           5.8626    0.9749    0.0000 H       1  UNL1        0.0283
     12 H           5.0656    0.9749    0.0000 H       1  UNL1        0.0283
     13 H           7.5947    0.9749    0.0000 H       1  UNL1        0.0263
     14 H           6.7976    0.9749    0.0000 H       1  UNL1        0.0263
     15 H           4.1996   -0.4749    0.0000 H       1  UNL1        0.0516
     16 H           4.9966   -0.4749    0.0000 H       1  UNL1        0.0516
     17 H           7.7522   -0.5369    0.0000 H       1  UNL1        0.0230
     18 H           8.5991   -0.3100    0.0000 H       1  UNL1        0.0230
     19 H           8.3722    0.5369    0.0000 H       1  UNL1        0.0230
@<TRIPOS>BOND
     1     1     8    2
     2     2     6    1
     3     2     8    2
     4     3     4    1
     5     3     5    1
     6     3     9    1
     7     3    10    1
     8     4     6    1
     9     4    11    1
    10     4    12    1
    11     5     7    1
    12     5    13    1
    13     5    14    1
    14     6    15    1
    15     6    16    1
    16     7    17    1
    17     7    18    1
    18     7    19    1
