@<TRIPOS>MOLECULE
IMPHY003749
 77 83 0 0 0
SMALL
GASTEIGER

@<TRIPOS>ATOM
      1 O           4.3933    1.2798    0.0000 O.3     1  UNL1       -0.2988
      2 O           3.3710    1.8575    0.0000 O.3     1  UNL1       -0.3481
      3 O           4.5851    5.2525    0.0000 O.2     1  UNL1       -0.2735
      4 O           6.8554    2.0468    0.0000 O.2     1  UNL1       -0.2704
      5 O           5.3743   -0.9223    0.0000 O.2     1  UNL1       -0.2750
      6 N           5.1950    2.6780    0.0000 N.am    1  UNL1       -0.2335
      7 N           3.5724    3.8473    0.0000 N.am    1  UNL1       -0.2900
      8 N           6.2345    0.5811    0.0000 N.am    1  UNL1       -0.2798
      9 N           8.9064   -0.9225    0.0000 N.3     1  UNL1       -0.2971
     10 N           9.8945   -5.1127    0.0000 N.ar    1  UNL1       -0.3604
     11 C           3.4717    2.8524    0.0000 C.3     1  UNL1        0.0987
     12 C           4.2830    2.2678    0.0000 C.3     1  UNL1        0.2691
     13 C           5.2956    3.6729    0.0000 C.3     1  UNL1        0.1076
     14 C           2.4996    2.6445    0.0000 C.3     1  UNL1       -0.0261
     15 C           2.6617    4.2458    0.0000 C.3     1  UNL1        0.0154
     16 C           2.0000    3.5039    0.0000 C.3     1  UNL1       -0.0352
     17 C           5.3666    1.0777    0.0000 C.3     1  UNL1        0.2150
     18 C           4.4844    4.2576    0.0000 C.2     1  UNL1        0.2367
     19 C           5.8610    1.9401    0.0000 C.2     1  UNL1        0.2707
     20 C           6.2076    4.0832    0.0000 C.3     1  UNL1       -0.0232
     21 C           6.3083    5.0781    0.0000 C.3     1  UNL1       -0.0446
     22 C           5.1624    0.0988    0.0000 C.3     1  UNL1       -0.0096
     23 C           7.1063   -0.9156    0.0000 C.3     1  UNL1        0.0670
     24 C           8.8904   -1.9640    0.0000 C.3     1  UNL1        0.0397
     25 C           6.2384   -0.4189    0.0000 C.2     1  UNL1        0.2235
     26 C           8.0084   -0.3948    0.0000 C.3     1  UNL1        0.0138
     27 C           8.0244   -2.4640    0.0000 C.2     1  UNL1       -0.0254
     28 C           7.2203    5.4884    0.0000 C.3     1  UNL1       -0.0626
     29 C           5.4970    5.6628    0.0000 C.3     1  UNL1       -0.0626
     30 C           7.1144   -1.9572    0.0000 C.2     1  UNL1       -0.0658
     31 C           9.7564   -2.4640    0.0000 C.3     1  UNL1       -0.0059
     32 C           8.0244   -3.4640    0.0000 C.ar    1  UNL1       -0.0112
     33 C           9.7564   -3.4640    0.0000 C.ar    1  UNL1       -0.0200
     34 C           8.8904   -3.9640    0.0000 C.ar    1  UNL1        0.0103
     35 C           9.7782   -0.4326    0.0000 C.3     1  UNL1       -0.0121
     36 C           8.9064   -5.0055    0.0000 C.ar    1  UNL1        0.0473
     37 C          10.3743   -4.2424    0.0000 C.ar    1  UNL1        0.0060
     38 C           7.1144   -3.9709    0.0000 C.ar    1  UNL1       -0.0536
     39 C           8.0084   -5.5333    0.0000 C.ar    1  UNL1       -0.0378
     40 C           7.1063   -5.0125    0.0000 C.ar    1  UNL1       -0.0592
     41 H           4.2469    3.2011    0.0000 H       1  UNL1        0.0572
     42 H           5.7986    3.3104    0.0000 H       1  UNL1        0.0598
     43 H           1.9338    2.3910    0.0000 H       1  UNL1        0.0286
     44 H           2.6923    2.0552    0.0000 H       1  UNL1        0.0286
     45 H           2.9685    4.7846    0.0000 H       1  UNL1        0.0465
     46 H           2.1582    4.6076    0.0000 H       1  UNL1        0.0465
     47 H           1.5832    3.9630    0.0000 H       1  UNL1        0.0281
     48 H           1.4997    3.1377    0.0000 H       1  UNL1        0.0281
     49 H           6.3599    3.4822    0.0000 H       1  UNL1        0.0290
     50 H           6.8259    4.1288    0.0000 H       1  UNL1        0.0290
     51 H           3.3086    1.2407    0.0000 H       1  UNL1        0.2145
     52 H           6.8113    4.7156    0.0000 H       1  UNL1        0.0296
     53 H           6.7703    0.8931    0.0000 H       1  UNL1        0.1519
     54 H           4.5555    0.2254    0.0000 H       1  UNL1        0.0279
     55 H           5.0359   -0.5082    0.0000 H       1  UNL1        0.0279
     56 H           5.7694   -0.0278    0.0000 H       1  UNL1        0.0279
     57 H           6.5712   -1.2287    0.0000 H       1  UNL1        0.0450
     58 H           9.6298   -1.5447    0.0000 H       1  UNL1        0.0515
     59 H           8.4094    0.0781    0.0000 H       1  UNL1        0.0437
     60 H           7.6111    0.0812    0.0000 H       1  UNL1        0.0437
     61 H           7.4746    4.9229    0.0000 H       1  UNL1        0.0232
     62 H           7.7857    5.7427    0.0000 H       1  UNL1        0.0232
     63 H           6.9659    6.0538    0.0000 H       1  UNL1        0.0232
     64 H           5.8595    6.1658    0.0000 H       1  UNL1        0.0232
     65 H           4.9940    6.0253    0.0000 H       1  UNL1        0.0232
     66 H           5.1346    5.1598    0.0000 H       1  UNL1        0.0232
     67 H           6.5810   -2.2734    0.0000 H       1  UNL1        0.0583
     68 H          10.3670   -2.5717    0.0000 H       1  UNL1        0.0332
     69 H           9.9685   -1.8814    0.0000 H       1  UNL1        0.0332
     70 H          10.0820   -0.9730    0.0000 H       1  UNL1        0.0391
     71 H          10.3187   -0.1288    0.0000 H       1  UNL1        0.0391
     72 H           9.4744    0.1079    0.0000 H       1  UNL1        0.0391
     73 H          10.9922   -4.1906    0.0000 H       1  UNL1        0.0810
     74 H           6.5810   -3.6547    0.0000 H       1  UNL1        0.0624
     75 H          10.1805   -5.6628    0.0000 H       1  UNL1        0.1653
     76 H           8.0108   -6.1533    0.0000 H       1  UNL1        0.0638
     77 H           6.5682   -5.3204    0.0000 H       1  UNL1        0.0618
@<TRIPOS>BOND
     1     1    12    1
     2     1    17    1
     3    12     2    1
     4     2    51    1
     5     3    18    2
     6     4    19    2
     7     5    25    2
     8     6    12    1
     9     6    13    1
    10     6    19   am
    11     7    11    1
    12     7    15    1
    13     7    18   am
    14    17     8    1
    15     8    25   am
    16     8    53    1
    17     9    24    1
    18     9    26    1
    19     9    35    1
    20    10    36   ar
    21    10    37   ar
    22    10    75    1
    23    11    12    1
    24    11    14    1
    25    11    41    1
    26    13    18    1
    27    13    20    1
    28    13    42    1
    29    14    16    1
    30    14    43    1
    31    14    44    1
    32    15    16    1
    33    15    45    1
    34    15    46    1
    35    16    47    1
    36    16    48    1
    37    17    19    1
    38    17    22    1
    39    20    21    1
    40    20    49    1
    41    20    50    1
    42    21    28    1
    43    21    29    1
    44    21    52    1
    45    22    54    1
    46    22    55    1
    47    22    56    1
    48    23    25    1
    49    23    26    1
    50    23    30    1
    51    23    57    1
    52    24    27    1
    53    24    31    1
    54    24    58    1
    55    26    59    1
    56    26    60    1
    57    27    30    2
    58    27    32    1
    59    28    61    1
    60    28    62    1
    61    28    63    1
    62    29    64    1
    63    29    65    1
    64    29    66    1
    65    30    67    1
    66    31    33    1
    67    31    68    1
    68    31    69    1
    69    32    34   ar
    70    32    38   ar
    71    33    34   ar
    72    33    37   ar
    73    34    36   ar
    74    35    70    1
    75    35    71    1
    76    35    72    1
    77    36    39   ar
    78    37    73    1
    79    38    40   ar
    80    38    74    1
    81    39    40   ar
    82    39    76    1
    83    40    77    1
