@<TRIPOS>MOLECULE
IMPHY015403
 19 19 0 0 0
SMALL
GASTEIGER

@<TRIPOS>ATOM
      1 O           5.4641    1.5000    0.0000 O.2     1  UNL1       -0.2923
      2 N           3.7320   -1.5000    0.0000 N.ar    1  UNL1       -0.2595
      3 C           4.5981    0.0000    0.0000 C.ar    1  UNL1        0.0352
      4 C           2.8660   -1.0000    0.0000 C.ar    1  UNL1        0.0382
      5 C           3.7320    0.5000    0.0000 C.ar    1  UNL1       -0.0481
      6 C           2.8660   -0.0000    0.0000 C.ar    1  UNL1       -0.0400
      7 C           4.5981   -1.0000    0.0000 C.ar    1  UNL1        0.0383
      8 C           5.4641    0.5000    0.0000 C.2     1  UNL1        0.1616
      9 C           2.0000   -1.5000    0.0000 C.3     1  UNL1       -0.0224
     10 C           6.3301    0.0000    0.0000 C.3     1  UNL1       -0.0014
     11 H           3.7320    1.1200    0.0000 H       1  UNL1        0.0626
     12 H           2.3291    0.3100    0.0000 H       1  UNL1        0.0636
     13 H           5.1350   -1.3100    0.0000 H       1  UNL1        0.0837
     14 H           1.6900   -0.9631    0.0000 H       1  UNL1        0.0292
     15 H           1.4631   -1.8100    0.0000 H       1  UNL1        0.0292
     16 H           2.3100   -2.0369    0.0000 H       1  UNL1        0.0292
     17 H           6.0201   -0.5369    0.0000 H       1  UNL1        0.0309
     18 H           6.8671   -0.3100    0.0000 H       1  UNL1        0.0309
     19 H           6.6401    0.5369    0.0000 H       1  UNL1        0.0309
@<TRIPOS>BOND
     1     1     8    2
     2     2     4   ar
     3     2     7   ar
     4     3     5   ar
     5     3     7   ar
     6     3     8    1
     7     4     6   ar
     8     4     9    1
     9     5     6   ar
    10     5    11    1
    11     6    12    1
    12     7    13    1
    13     8    10    1
    14     9    14    1
    15     9    15    1
    16     9    16    1
    17    10    17    1
    18    10    18    1
    19    10    19    1
