@<TRIPOS>MOLECULE
IMPHY002294
 51 53 0 0 0
SMALL
GASTEIGER

@<TRIPOS>ATOM
      1 O           4.2496    0.8725    0.0000 O.3     1  UNL1       -0.4561
      2 O           6.7897    0.3837    0.0000 O.3     1  UNL1       -0.4576
      3 O           5.9430   -2.0828    0.0000 O.3     1  UNL1       -0.4498
      4 O           2.5369    0.8837    0.0000 O.2     1  UNL1       -0.2453
      5 O           7.6557   -1.0940    0.0000 O.2     1  UNL1       -0.2466
      6 O           7.6751   -2.0828    0.0000 O.2     1  UNL1       -0.2511
      7 N           5.0964    3.3167    0.0000 N.3     1  UNL1       -0.2886
      8 C           5.0964    2.3390    0.0000 C.3     1  UNL1        0.0723
      9 C           4.2496    1.8502    0.0000 C.3     1  UNL1        0.1239
     10 C           3.5551    2.7790    0.0000 C.3     1  UNL1       -0.0010
     11 C           4.0765    3.5611    0.0000 C.3     1  UNL1        0.0033
     12 C           5.9430    1.8502    0.0000 C.2     1  UNL1       -0.0148
     13 C           6.0318    3.5828    0.0000 C.3     1  UNL1        0.0182
     14 C           6.6401    2.7790    0.0000 C.2     1  UNL1       -0.0660
     15 C           5.9430    0.8725    0.0000 C.3     1  UNL1        0.1153
     16 C           3.4030    0.3837    0.0000 C.2     1  UNL1        0.3352
     17 C           5.0964   -0.5940    0.0000 C.3     1  UNL1        0.0081
     18 C           4.2496   -1.0828    0.0000 C.3     1  UNL1       -0.0147
     19 C           5.9430   -1.0828    0.0000 C.3     1  UNL1        0.2017
     20 C           3.4030   -0.5940    0.0000 C.2     1  UNL1        0.0328
     21 C           6.7897   -0.5940    0.0000 C.2     1  UNL1        0.3490
     22 C           5.0964    0.4060    0.0000 C.3     1  UNL1       -0.0582
     23 C           2.5369   -1.0940    0.0000 C.2     1  UNL1       -0.0771
     24 C           2.5370   -2.0940    0.0000 C.3     1  UNL1       -0.0461
     25 C           6.8091   -2.5828    0.0000 C.2     1  UNL1        0.3047
     26 C           6.8091   -3.5828    0.0000 C.3     1  UNL1        0.0333
     27 H           5.0964    1.4890    0.0000 H       1  UNL1        0.0547
     28 H           3.4430    1.5820    0.0000 H       1  UNL1        0.0753
     29 H           3.0815    3.1791    0.0000 H       1  UNL1        0.0314
     30 H           3.1038    2.3538    0.0000 H       1  UNL1        0.0314
     31 H           4.2907    4.1429    0.0000 H       1  UNL1        0.0428
     32 H           3.5238    3.8421    0.0000 H       1  UNL1        0.0428
     33 H           6.5685    3.8932    0.0000 H       1  UNL1        0.0470
     34 H           5.7900    4.1537    0.0000 H       1  UNL1        0.0470
     35 H           7.2601    2.7802    0.0000 H       1  UNL1        0.0586
     36 H           5.3324    0.9802    0.0000 H       1  UNL1        0.0746
     37 H           5.7310    0.2899    0.0000 H       1  UNL1        0.0746
     38 H           5.6333   -0.2840    0.0000 H       1  UNL1        0.0342
     39 H           3.8511   -1.5577    0.0000 H       1  UNL1        0.0319
     40 H           4.6481   -1.5578    0.0000 H       1  UNL1        0.0319
     41 H           6.4800   -1.3928    0.0000 H       1  UNL1        0.0856
     42 H           5.7164    0.4060    0.0000 H       1  UNL1        0.0234
     43 H           5.0964    1.0260    0.0000 H       1  UNL1        0.0234
     44 H           4.4764    0.4060    0.0000 H       1  UNL1        0.0234
     45 H           2.0000   -0.7840    0.0000 H       1  UNL1        0.0574
     46 H           1.9170   -2.0940    0.0000 H       1  UNL1        0.0272
     47 H           2.5370   -2.7140    0.0000 H       1  UNL1        0.0272
     48 H           3.1570   -2.0940    0.0000 H       1  UNL1        0.0272
     49 H           6.1891   -3.5828    0.0000 H       1  UNL1        0.0342
     50 H           6.8091   -4.2028    0.0000 H       1  UNL1        0.0342
     51 H           7.4291   -3.5828    0.0000 H       1  UNL1        0.0342
@<TRIPOS>BOND
     1     1     9    1
     2     1    16    1
     3     2    15    1
     4     2    21    1
     5    19     3    1
     6     3    25    1
     7     4    16    2
     8     5    21    2
     9     6    25    2
    10     7     8    1
    11     7    11    1
    12     7    13    1
    13     8     9    1
    14     8    12    1
    15     8    27    1
    16     9    10    1
    17     9    28    1
    18    10    11    1
    19    10    29    1
    20    10    30    1
    21    11    31    1
    22    11    32    1
    23    12    14    2
    24    12    15    1
    25    13    14    1
    26    13    33    1
    27    13    34    1
    28    14    35    1
    29    15    36    1
    30    15    37    1
    31    16    20    1
    32    17    18    1
    33    17    19    1
    34    17    22    1
    35    17    38    1
    36    18    20    1
    37    18    39    1
    38    18    40    1
    39    19    21    1
    40    19    41    1
    41    20    23    2
    42    22    42    1
    43    22    43    1
    44    22    44    1
    45    23    24    1
    46    23    45    1
    47    24    46    1
    48    24    47    1
    49    24    48    1
    50    25    26    1
    51    26    49    1
    52    26    50    1
    53    26    51    1
