@<TRIPOS>MOLECULE
IMPHY002642
 57 60 0 0 0
SMALL
GASTEIGER

@<TRIPOS>ATOM
      1 O          10.4728   -3.0545    0.0000 O.3     1  UNL1       -0.4852
      2 O          13.0564   -2.2497    0.0000 O.3     1  UNL1       -0.3855
      3 O           6.9006   -3.2844    0.0000 O.2     1  UNL1       -0.4618
      4 O           8.6605   -0.2497    0.0000 O.3     1  UNL1       -0.5055
      5 O           6.9121   -0.2151    0.0000 O.2     1  UNL1       -0.2863
      6 O           2.5381    0.2844    0.0000 O.3     1  UNL1       -0.5065
      7 C          11.0564   -2.2497    0.0000 C.3     1  UNL1        0.1323
      8 C          12.0564   -2.2497    0.0000 C.3     1  UNL1        0.0974
      9 C          10.4728   -1.4450    0.0000 C.3     1  UNL1        0.0192
     10 C           9.5266   -1.7497    0.0000 C.ar    1  UNL1        0.0401
     11 C           9.5266   -2.7497    0.0000 C.ar    1  UNL1        0.1313
     12 C          12.0564   -3.2497    0.0000 C.3     1  UNL1       -0.0328
     13 C          12.0564   -1.2497    0.0000 C.3     1  UNL1       -0.0328
     14 C           8.6605   -1.2497    0.0000 C.ar    1  UNL1        0.1380
     15 C           8.6605   -3.2497    0.0000 C.ar    1  UNL1        0.0236
     16 C           7.7945   -1.7497    0.0000 C.ar    1  UNL1        0.1063
     17 C           7.7945   -2.7497    0.0000 C.ar    1  UNL1        0.1454
     18 C           6.9006   -1.2151    0.0000 C.ar    1  UNL1        0.2037
     19 C           5.9945   -1.7289    0.0000 C.ar    1  UNL1        0.0644
     20 C           5.9945   -2.7706    0.0000 C.ar    1  UNL1        0.1038
     21 C           5.1304   -1.2256    0.0000 C.ar    1  UNL1       -0.0108
     22 C           5.1343   -0.2256    0.0000 C.ar    1  UNL1       -0.0469
     23 C           4.2702    0.2777    0.0000 C.ar    1  UNL1       -0.0017
     24 C           4.2625   -1.7222    0.0000 C.ar    1  UNL1       -0.0504
     25 C           4.2740    1.2777    0.0000 C.3     1  UNL1       -0.0058
     26 C           3.4022   -0.2189    0.0000 C.ar    1  UNL1        0.1203
     27 C           3.3984   -1.2189    0.0000 C.ar    1  UNL1       -0.0193
     28 C           3.4099    1.7811    0.0000 C.2     1  UNL1       -0.0809
     29 C           3.4138    2.7811    0.0000 C.2     1  UNL1       -0.0793
     30 C           2.5497    3.2844    0.0000 C.3     1  UNL1       -0.0440
     31 C           4.2817    3.2777    0.0000 C.3     1  UNL1       -0.0440
     32 H          11.3381   -2.8020    0.0000 H       1  UNL1        0.0765
     33 H          11.0102   -1.1358    0.0000 H       1  UNL1        0.0352
     34 H          10.2217   -0.8781    0.0000 H       1  UNL1        0.0352
     35 H          11.4364   -3.2497    0.0000 H       1  UNL1        0.0258
     36 H          12.0564   -3.8697    0.0000 H       1  UNL1        0.0258
     37 H          12.6764   -3.2497    0.0000 H       1  UNL1        0.0258
     38 H          12.6764   -1.2497    0.0000 H       1  UNL1        0.0258
     39 H          12.0564   -0.6297    0.0000 H       1  UNL1        0.0258
     40 H          11.4364   -1.2497    0.0000 H       1  UNL1        0.0258
     41 H           8.6605   -3.8697    0.0000 H       1  UNL1        0.0691
     42 H          13.3664   -2.7867    0.0000 H       1  UNL1        0.2103
     43 H           9.1975    0.0603    0.0000 H       1  UNL1        0.2922
     44 H           5.4588   -3.0826    0.0000 H       1  UNL1        0.1037
     45 H           5.6724    0.0823    0.0000 H       1  UNL1        0.0628
     46 H           4.2601   -2.3422    0.0000 H       1  UNL1        0.0625
     47 H           4.8842    1.1677    0.0000 H       1  UNL1        0.0357
     48 H           4.4883    1.8595    0.0000 H       1  UNL1        0.0357
     49 H           2.8602   -1.5268    0.0000 H       1  UNL1        0.0654
     50 H           2.8718    1.4731    0.0000 H       1  UNL1        0.0575
     51 H           2.0000   -0.0235    0.0000 H       1  UNL1        0.2921
     52 H           2.8618    3.8201    0.0000 H       1  UNL1        0.0274
     53 H           4.5897    2.7396    0.0000 H       1  UNL1        0.0274
     54 H           4.8199    3.5856    0.0000 H       1  UNL1        0.0274
     55 H           3.9738    3.8158    0.0000 H       1  UNL1        0.0274
     56 H           2.0140    3.5965    0.0000 H       1  UNL1        0.0274
     57 H           2.2376    2.7487    0.0000 H       1  UNL1        0.0274
@<TRIPOS>BOND
     1     1     7    1
     2     1    11    1
     3     2     8    1
     4     2    42    1
     5     3    17   ar
     6     3    20   ar
     7     4    14    1
     8     4    43    1
     9     5    18    2
    10     6    26    1
    11     6    51    1
    12     7     8    1
    13     7     9    1
    14     7    32    1
    15     8    12    1
    16     8    13    1
    17     9    10    1
    18     9    33    1
    19     9    34    1
    20    10    11   ar
    21    10    14   ar
    22    11    15   ar
    23    12    35    1
    24    12    36    1
    25    12    37    1
    26    13    38    1
    27    13    39    1
    28    13    40    1
    29    14    16   ar
    30    15    17   ar
    31    15    41    1
    32    16    17   ar
    33    16    18   ar
    34    18    19   ar
    35    19    20   ar
    36    19    21    1
    37    20    44    1
    38    21    22   ar
    39    21    24   ar
    40    22    23   ar
    41    22    45    1
    42    23    25    1
    43    23    26   ar
    44    24    27   ar
    45    24    46    1
    46    25    28    1
    47    25    47    1
    48    25    48    1
    49    26    27   ar
    50    27    49    1
    51    28    29    2
    52    28    50    1
    53    29    30    1
    54    29    31    1
    55    30    52    1
    56    30    56    1
    57    30    57    1
    58    31    53    1
    59    31    54    1
    60    31    55    1
