@<TRIPOS>MOLECULE
IMPHY015858
 87 93 0 0 0
SMALL
GASTEIGER

@<TRIPOS>ATOM
      1 O           5.9851   -0.7131    0.0000 O.3     1  UNL1       -0.4573
      2 O           7.5027   -1.8819    0.0000 O.3     1  UNL1       -0.3790
      3 O           9.3254    1.8799    0.0000 O.3     1  UNL1       -0.3912
      4 O           5.6089    1.6284    0.0000 O.3     1  UNL1       -0.4571
      5 O           5.2077    2.3379    0.0000 O.3     1  UNL1       -0.3792
      6 O          10.1914   -2.3552    0.0000 O.3     1  UNL1       -0.3824
      7 O           4.3009   -0.3088    0.0000 O.2     1  UNL1       -0.2511
      8 O           4.6119    0.2121    0.0000 O.2     1  UNL1       -0.2450
      9 N          10.5207    0.0509    0.0000 N.3     1  UNL1       -0.2979
     10 C           8.5740    0.4461    0.0000 C.3     1  UNL1        0.0218
     11 C           8.5740   -0.4215    0.0000 C.3     1  UNL1        0.0043
     12 C           7.8957    0.9870    0.0000 C.3     1  UNL1       -0.0209
     13 C           9.5760    0.3401    0.0000 C.3     1  UNL1        0.0279
     14 C           7.0499   -0.7693    0.0000 C.3     1  UNL1        0.0421
     15 C           7.0499    0.7940    0.0000 C.3     1  UNL1        0.0403
     16 C           6.6735    0.0123    0.0000 C.3     1  UNL1        0.1289
     17 C           7.8957   -0.9624    0.0000 C.3     1  UNL1        0.0703
     18 C           9.3254   -0.8552    0.0000 C.3     1  UNL1        0.0127
     19 C           9.3254    0.8799    0.0000 C.3     1  UNL1        0.0629
     20 C           7.9735    1.8511    0.0000 C.3     1  UNL1       -0.0405
     21 C           7.1757    2.1921    0.0000 C.3     1  UNL1        0.0232
     22 C           6.6049    1.5388    0.0000 C.3     1  UNL1        0.1153
     23 C           6.0286    0.2822    0.0000 C.3     1  UNL1        0.0147
     24 C          10.5207   -0.7010    0.0000 C.3     1  UNL1        0.0073
     25 C          10.0767   -0.4215    0.0000 C.3     1  UNL1       -0.0414
     26 C           6.0286    1.7668    0.0000 C.3     1  UNL1        0.0682
     27 C          10.0767    0.4461    0.0000 C.3     1  UNL1       -0.0256
     28 C           9.3254   -1.8552    0.0000 C.3     1  UNL1        0.0544
     29 C          11.3246    0.6456    0.0000 C.3     1  UNL1       -0.0036
     30 C           8.1025   -2.6820    0.0000 C.3     1  UNL1        0.0368
     31 C           5.0263   -0.9971    0.0000 C.2     1  UNL1        0.3045
     32 C          12.2416    0.2466    0.0000 C.3     1  UNL1       -0.0523
     33 C           4.7016    1.2080    0.0000 C.2     1  UNL1        0.3395
     34 C           5.2918    3.3343    0.0000 C.3     1  UNL1        0.0368
     35 C           4.7929   -1.9695    0.0000 C.3     1  UNL1        0.0333
     36 C          10.1914   -3.3552    0.0000 C.3     1  UNL1        0.0365
     37 C           3.8838    1.7836    0.0000 C.ar    1  UNL1        0.0590
     38 C           2.9765    1.3633    0.0000 C.ar    1  UNL1       -0.0478
     39 C           3.9735    2.7796    0.0000 C.ar    1  UNL1       -0.0478
     40 C           2.1588    1.9389    0.0000 C.ar    1  UNL1       -0.0610
     41 C           3.1558    3.3552    0.0000 C.ar    1  UNL1       -0.0610
     42 C           2.2484    2.9349    0.0000 C.ar    1  UNL1       -0.0617
     43 H           8.6375   -1.2691    0.0000 H       1  UNL1        0.0339
     44 H           8.6773    1.3211    0.0000 H       1  UNL1        0.0313
     45 H          10.0205    1.0646    0.0000 H       1  UNL1        0.0474
     46 H           6.5199   -1.4339    0.0000 H       1  UNL1        0.0380
     47 H           6.2007    0.7559    0.0000 H       1  UNL1        0.0378
     48 H           8.0961   -1.5491    0.0000 H       1  UNL1        0.0603
     49 H           8.7884    1.1899    0.0000 H       1  UNL1        0.0599
     50 H           8.1562    2.4436    0.0000 H       1  UNL1        0.0273
     51 H           8.5818    1.7313    0.0000 H       1  UNL1        0.0273
     52 H           7.1965    3.0418    0.0000 H       1  UNL1        0.0362
     53 H           6.3741    2.1142    0.0000 H       1  UNL1        0.0742
     54 H           5.8666   -0.3162    0.0000 H       1  UNL1        0.0329
     55 H           5.4140    0.3639    0.0000 H       1  UNL1        0.0329
     56 H          11.1401   -0.6745    0.0000 H       1  UNL1        0.0433
     57 H          10.5737   -1.3188    0.0000 H       1  UNL1        0.0433
     58 H          10.6873   -0.3138    0.0000 H       1  UNL1        0.0273
     59 H          10.2887   -1.0041    0.0000 H       1  UNL1        0.0273
     60 H           6.1067    2.3818    0.0000 H       1  UNL1        0.0601
     61 H          10.2887    1.0287    0.0000 H       1  UNL1        0.0290
     62 H          10.6873    0.3385    0.0000 H       1  UNL1        0.0290
     63 H           9.1133   -2.4378    0.0000 H       1  UNL1        0.0566
     64 H           8.7148   -1.7476    0.0000 H       1  UNL1        0.0566
     65 H          10.8750    1.0724    0.0000 H       1  UNL1        0.0424
     66 H          11.6669    1.1625    0.0000 H       1  UNL1        0.0424
     67 H           9.8623    2.1899    0.0000 H       1  UNL1        0.2098
     68 H           8.5986   -2.3102    0.0000 H       1  UNL1        0.0524
     69 H           8.4744   -3.1781    0.0000 H       1  UNL1        0.0524
     70 H           7.6064   -3.0539    0.0000 H       1  UNL1        0.0524
     71 H          12.4890    0.8152    0.0000 H       1  UNL1        0.0242
     72 H          12.8102   -0.0007    0.0000 H       1  UNL1        0.0242
     73 H          11.9943   -0.3219    0.0000 H       1  UNL1        0.0242
     74 H           4.6740    3.3865    0.0000 H       1  UNL1        0.0524
     75 H           5.3440    3.9521    0.0000 H       1  UNL1        0.0524
     76 H           5.9096    3.2822    0.0000 H       1  UNL1        0.0524
     77 H           5.3958   -2.1142    0.0000 H       1  UNL1        0.0342
     78 H           4.6482   -2.5724    0.0000 H       1  UNL1        0.0342
     79 H           4.1900   -1.8248    0.0000 H       1  UNL1        0.0342
     80 H          10.8114   -3.3552    0.0000 H       1  UNL1        0.0523
     81 H          10.1914   -3.9752    0.0000 H       1  UNL1        0.0523
     82 H           9.5714   -3.3552    0.0000 H       1  UNL1        0.0523
     83 H           2.9209    0.7458    0.0000 H       1  UNL1        0.0626
     84 H           4.5360    3.0402    0.0000 H       1  UNL1        0.0626
     85 H           1.5962    1.6783    0.0000 H       1  UNL1        0.0618
     86 H           3.2114    3.9728    0.0000 H       1  UNL1        0.0618
     87 H           1.7414    3.2918    0.0000 H       1  UNL1        0.0618
@<TRIPOS>BOND
     1    16     1    1
     2     1    31    1
     3    17     2    1
     4     2    30    1
     5     3    19    1
     6     3    67    1
     7    22     4    1
     8     4    33    1
     9    26     5    1
    10     5    34    1
    11     6    28    1
    12     6    36    1
    13     7    31    2
    14     8    33    2
    15     9    13    1
    16     9    24    1
    17     9    29    1
    18    10    11    1
    19    10    12    1
    20    10    13    1
    21    10    19    1
    22    11    17    1
    23    11    18    1
    24    11    43    1
    25    12    15    1
    26    12    20    1
    27    12    44    1
    28    13    14    1
    29    13    45    1
    30    14    16    1
    31    14    17    1
    32    14    46    1
    33    15    16    1
    34    15    22    1
    35    15    47    1
    36    16    23    1
    37    17    48    1
    38    18    24    1
    39    18    25    1
    40    18    28    1
    41    19    27    1
    42    19    49    1
    43    20    21    1
    44    20    50    1
    45    20    51    1
    46    21    22    1
    47    21    26    1
    48    21    52    1
    49    22    53    1
    50    23    26    1
    51    23    54    1
    52    23    55    1
    53    24    56    1
    54    24    57    1
    55    25    27    1
    56    25    58    1
    57    25    59    1
    58    26    60    1
    59    27    61    1
    60    27    62    1
    61    28    63    1
    62    28    64    1
    63    29    32    1
    64    29    65    1
    65    29    66    1
    66    30    68    1
    67    30    69    1
    68    30    70    1
    69    31    35    1
    70    32    71    1
    71    32    72    1
    72    32    73    1
    73    33    37    1
    74    34    74    1
    75    34    75    1
    76    34    76    1
    77    35    77    1
    78    35    78    1
    79    35    79    1
    80    36    80    1
    81    36    81    1
    82    36    82    1
    83    37    38   ar
    84    37    39   ar
    85    38    40   ar
    86    38    83    1
    87    39    41   ar
    88    39    84    1
    89    40    42   ar
    90    40    85    1
    91    41    42   ar
    92    41    86    1
    93    42    87    1
