@<TRIPOS>MOLECULE
IMPHY006176
 55 54 0 0 0
SMALL
GASTEIGER

@<TRIPOS>ATOM
      1 O           2.5369   -0.8660    0.0000 O.3     1  UNL1       -0.3848
      2 C           3.4030   -0.3660    0.0000 C.3     1  UNL1        0.0814
      3 C           4.2690    0.1340    0.0000 C.3     1  UNL1       -0.0172
      4 C           5.1350   -0.3660    0.0000 C.3     1  UNL1       -0.0316
      5 C           7.7331    0.1340    0.0000 C.3     1  UNL1       -0.0286
      6 C           6.8671   -0.3660    0.0000 C.2     1  UNL1       -0.0762
      7 C           6.0010    0.1340    0.0000 C.2     1  UNL1       -0.0849
      8 C           8.5991   -0.3660    0.0000 C.3     1  UNL1       -0.0308
      9 C           3.9030   -1.2320    0.0000 C.3     1  UNL1       -0.0324
     10 C           2.9030    0.5000    0.0000 C.2     1  UNL1       -0.0602
     11 C          10.3312   -0.3660    0.0000 C.2     1  UNL1       -0.0762
     12 C           9.4651    0.1340    0.0000 C.2     1  UNL1       -0.0847
     13 C          11.1972    0.1340    0.0000 C.3     1  UNL1       -0.0286
     14 C           6.8671   -1.3660    0.0000 C.3     1  UNL1       -0.0438
     15 C          12.0632   -0.3660    0.0000 C.3     1  UNL1       -0.0308
     16 C          10.3312   -1.3660    0.0000 C.3     1  UNL1       -0.0438
     17 C          12.9292    0.1340    0.0000 C.2     1  UNL1       -0.0850
     18 C           3.4030    1.3660    0.0000 C.2     1  UNL1       -0.1000
     19 C          13.7953   -0.3660    0.0000 C.2     1  UNL1       -0.0796
     20 C          14.6613    0.1340    0.0000 C.3     1  UNL1       -0.0440
     21 C          13.7953   -1.3660    0.0000 C.3     1  UNL1       -0.0440
     22 H           4.6675    0.6089    0.0000 H       1  UNL1        0.0299
     23 H           3.8705    0.6089    0.0000 H       1  UNL1        0.0299
     24 H           4.7365   -0.8410    0.0000 H       1  UNL1        0.0308
     25 H           5.5335   -0.8410    0.0000 H       1  UNL1        0.0308
     26 H           8.1316    0.6089    0.0000 H       1  UNL1        0.0313
     27 H           7.3346    0.6089    0.0000 H       1  UNL1        0.0313
     28 H           6.0010    0.7540    0.0000 H       1  UNL1        0.0572
     29 H           8.2006   -0.8410    0.0000 H       1  UNL1        0.0310
     30 H           8.9976   -0.8410    0.0000 H       1  UNL1        0.0310
     31 H           3.3660   -1.5420    0.0000 H       1  UNL1        0.0260
     32 H           4.2130   -1.7690    0.0000 H       1  UNL1        0.0260
     33 H           4.4399   -0.9221    0.0000 H       1  UNL1        0.0260
     34 H           2.2830    0.5000    0.0000 H       1  UNL1        0.0594
     35 H           9.4651    0.7540    0.0000 H       1  UNL1        0.0572
     36 H          11.5957    0.6089    0.0000 H       1  UNL1        0.0313
     37 H          10.7987    0.6089    0.0000 H       1  UNL1        0.0313
     38 H           6.2471   -1.3660    0.0000 H       1  UNL1        0.0274
     39 H           6.8671   -1.9860    0.0000 H       1  UNL1        0.0274
     40 H           7.4871   -1.3660    0.0000 H       1  UNL1        0.0274
     41 H          11.6647   -0.8410    0.0000 H       1  UNL1        0.0310
     42 H          12.4617   -0.8410    0.0000 H       1  UNL1        0.0310
     43 H           2.0000   -0.5560    0.0000 H       1  UNL1        0.2106
     44 H           9.7112   -1.3660    0.0000 H       1  UNL1        0.0274
     45 H          10.3312   -1.9860    0.0000 H       1  UNL1        0.0274
     46 H          10.9512   -1.3660    0.0000 H       1  UNL1        0.0274
     47 H          12.9292    0.7540    0.0000 H       1  UNL1        0.0572
     48 H           4.0230    1.3660    0.0000 H       1  UNL1        0.0533
     49 H           3.0930    1.9030    0.0000 H       1  UNL1        0.0533
     50 H          14.9713   -0.4030    0.0000 H       1  UNL1        0.0274
     51 H          15.1982    0.4440    0.0000 H       1  UNL1        0.0274
     52 H          14.3513    0.6709    0.0000 H       1  UNL1        0.0274
     53 H          13.1753   -1.3660    0.0000 H       1  UNL1        0.0274
     54 H          13.7953   -1.9860    0.0000 H       1  UNL1        0.0274
     55 H          14.4153   -1.3660    0.0000 H       1  UNL1        0.0274
@<TRIPOS>BOND
     1     1     2    1
     2     1    43    1
     3     2     3    1
     4     2     9    1
     5     2    10    1
     6     3     4    1
     7     3    22    1
     8     3    23    1
     9     4     7    1
    10     4    24    1
    11     4    25    1
    12     5     6    1
    13     5     8    1
    14     5    26    1
    15     5    27    1
    16     6     7    2
    17     6    14    1
    18     7    28    1
    19     8    12    1
    20     8    29    1
    21     8    30    1
    22     9    31    1
    23     9    32    1
    24     9    33    1
    25    10    18    2
    26    10    34    1
    27    11    12    2
    28    11    13    1
    29    11    16    1
    30    12    35    1
    31    13    15    1
    32    13    36    1
    33    13    37    1
    34    14    38    1
    35    14    39    1
    36    14    40    1
    37    15    17    1
    38    15    41    1
    39    15    42    1
    40    16    44    1
    41    16    45    1
    42    16    46    1
    43    17    19    2
    44    17    47    1
    45    18    48    1
    46    18    49    1
    47    19    20    1
    48    19    21    1
    49    20    50    1
    50    20    51    1
    51    20    52    1
    52    21    53    1
    53    21    54    1
    54    21    55    1
