@<TRIPOS>MOLECULE
IMPHY007944
 127 133 0 0 0
SMALL
GASTEIGER

@<TRIPOS>ATOM
      1 O          18.6473    0.8385    0.0000 O.3     1  UNL1       -0.3876
      2 O          17.7678   -2.6581    0.0000 O.3     1  UNL1       -0.3886
      3 O          16.0396   -1.6515    0.0000 O.3     1  UNL1       -0.3889
      4 O          20.8693   -2.6316    0.0000 O.3     1  UNL1       -0.3918
      5 O          13.2583    1.9116    0.0000 O.3     1  UNL1       -0.3477
      6 O          11.5263    1.9116    0.0000 O.3     1  UNL1       -0.3456
      7 O          11.5263   -1.0884    0.0000 O.3     1  UNL1       -0.3770
      8 O           9.7942   -0.0884    0.0000 O.3     1  UNL1       -0.3429
      9 O           8.9282    1.4116    0.0000 O.3     1  UNL1       -0.3456
     10 O           6.3301    1.9116    0.0000 O.3     1  UNL1       -0.3403
     11 O           6.3301   -0.0884    0.0000 O.3     1  UNL1       -0.3770
     12 O           5.4641    0.4116    0.0000 O.3     1  UNL1       -0.3431
     13 O           4.5981    2.9116    0.0000 O.3     1  UNL1       -0.3841
     14 O           2.8660    1.9116    0.0000 O.3     1  UNL1       -0.3744
     15 O           2.8660   -0.0884    0.0000 O.3     1  UNL1       -0.3866
     16 C          18.6396   -1.1615    0.0000 C.3     1  UNL1        0.0304
     17 C          18.6435   -0.1615    0.0000 C.3     1  UNL1        0.0777
     18 C          17.7794    0.3418    0.0000 C.3     1  UNL1       -0.0021
     19 C          16.9114   -0.1548    0.0000 C.3     1  UNL1        0.0023
     20 C          19.5846   -1.4699    0.0000 C.3     1  UNL1       -0.0047
     21 C          17.7717   -1.6581    0.0000 C.3     1  UNL1        0.0896
     22 C          16.0034    0.3555    0.0000 C.3     1  UNL1       -0.0053
     23 C          16.9076   -1.1548    0.0000 C.3     1  UNL1        0.0856
     24 C          19.5909    0.1396    0.0000 C.3     1  UNL1       -0.0228
     25 C          20.1714   -0.6674    0.0000 C.3     1  UNL1       -0.0446
     26 C          17.7994    1.3833    0.0000 C.3     1  UNL1       -0.0287
     27 C          18.6358   -2.1615    0.0000 C.3     1  UNL1       -0.0541
     28 C          15.9994    1.3972    0.0000 C.2     1  UNL1       -0.0647
     29 C          15.0744   -0.2050    0.0000 C.3     1  UNL1       -0.0412
     30 C          19.8916   -2.4216    0.0000 C.3     1  UNL1        0.0559
     31 C          16.9035    1.9145    0.0000 C.2     1  UNL1       -0.0838
     32 C          16.0072   -0.6445    0.0000 C.3     1  UNL1       -0.0555
     33 C          15.0661    1.9505    0.0000 C.3     1  UNL1       -0.0047
     34 C          14.1285    0.3266    0.0000 C.3     1  UNL1       -0.0254
     35 C          14.1244    1.4116    0.0000 C.3     1  UNL1        0.0654
     36 C          19.2209   -3.1633    0.0000 C.3     1  UNL1       -0.0387
     37 C          12.3923    1.4116    0.0000 C.3     1  UNL1        0.1624
     38 C          12.3923    0.4116    0.0000 C.3     1  UNL1        0.0272
     39 C          11.5263   -0.0884    0.0000 C.3     1  UNL1        0.0915
     40 C          10.6603    1.4116    0.0000 C.3     1  UNL1        0.0875
     41 C          10.6603    0.4116    0.0000 C.3     1  UNL1        0.1137
     42 C           9.7942    1.9116    0.0000 C.3     1  UNL1       -0.0361
     43 C           8.9282    0.4116    0.0000 C.3     1  UNL1        0.1626
     44 C          12.3923   -1.5884    0.0000 C.3     1  UNL1        0.0369
     45 C           8.0622   -0.0884    0.0000 C.3     1  UNL1        0.0272
     46 C           7.1962    0.4116    0.0000 C.3     1  UNL1        0.0915
     47 C           7.1962    1.4116    0.0000 C.3     1  UNL1        0.1138
     48 C           8.0622    1.9116    0.0000 C.3     1  UNL1        0.0875
     49 C           8.0622    2.9116    0.0000 C.3     1  UNL1       -0.0361
     50 C           5.4641    1.4116    0.0000 C.3     1  UNL1        0.1883
     51 C           4.5981    1.9116    0.0000 C.3     1  UNL1        0.1344
     52 C           3.7320    1.4116    0.0000 C.3     1  UNL1        0.1170
     53 C           3.7320    0.4116    0.0000 C.3     1  UNL1        0.1097
     54 C           4.5981   -0.0884    0.0000 C.3     1  UNL1        0.0873
     55 C           6.3301   -1.0884    0.0000 C.3     1  UNL1        0.0369
     56 C           4.5981   -1.0884    0.0000 C.3     1  UNL1       -0.0361
     57 C           2.0000    1.4116    0.0000 C.3     1  UNL1        0.0370
     58 H          18.5204    0.7583    0.0000 H       1  UNL1        0.0335
     59 H          17.6459   -0.5826    0.0000 H       1  UNL1        0.0339
     60 H          20.4238   -1.6050    0.0000 H       1  UNL1        0.0333
     61 H          17.2335   -1.9661    0.0000 H       1  UNL1        0.0626
     62 H          16.3718   -0.8427    0.0000 H       1  UNL1        0.0622
     63 H          20.1294    0.4467    0.0000 H       1  UNL1        0.0293
     64 H          19.3420    0.7075    0.0000 H       1  UNL1        0.0293
     65 H          20.6306   -1.0839    0.0000 H       1  UNL1        0.0270
     66 H          20.6338   -0.2544    0.0000 H       1  UNL1        0.0270
     67 H          18.4081    1.2654    0.0000 H       1  UNL1        0.0311
     68 H          18.0197    1.9628    0.0000 H       1  UNL1        0.0311
     69 H          18.0158   -2.1591    0.0000 H       1  UNL1        0.0237
     70 H          18.6334   -2.7815    0.0000 H       1  UNL1        0.0237
     71 H          19.2558   -2.1639    0.0000 H       1  UNL1        0.0237
     72 H          14.6826   -0.6855    0.0000 H       1  UNL1        0.0274
     73 H          15.4808   -0.6732    0.0000 H       1  UNL1        0.0274
     74 H          20.0820   -3.0116    0.0000 H       1  UNL1        0.0593
     75 H          16.9082    2.5345    0.0000 H       1  UNL1        0.0572
     76 H          19.1854    1.1464    0.0000 H       1  UNL1        0.2102
     77 H          15.3872   -0.6468    0.0000 H       1  UNL1        0.0238
     78 H          16.0096   -1.2644    0.0000 H       1  UNL1        0.0238
     79 H          16.6272   -0.6421    0.0000 H       1  UNL1        0.0238
     80 H          15.4689    2.4218    0.0000 H       1  UNL1        0.0335
     81 H          14.6706    2.4280    0.0000 H       1  UNL1        0.0335
     82 H          13.5173    0.4304    0.0000 H       1  UNL1        0.0290
     83 H          13.9217   -0.2579    0.0000 H       1  UNL1        0.0290
     84 H          13.5880    1.1006    0.0000 H       1  UNL1        0.0600
     85 H          17.2297   -2.9661    0.0000 H       1  UNL1        0.2099
     86 H          16.0372   -2.2715    0.0000 H       1  UNL1        0.2099
     87 H          18.7611   -2.7474    0.0000 H       1  UNL1        0.0255
     88 H          18.8051   -3.6232    0.0000 H       1  UNL1        0.0255
     89 H          19.6808   -3.5791    0.0000 H       1  UNL1        0.0255
     90 H          21.0597   -3.2216    0.0000 H       1  UNL1        0.2098
     91 H          12.9292    1.1016    0.0000 H       1  UNL1        0.0910
     92 H          12.6044   -0.1710    0.0000 H       1  UNL1        0.0340
     93 H          13.0029    0.5193    0.0000 H       1  UNL1        0.0340
     94 H          10.9893   -0.3984    0.0000 H       1  UNL1        0.0624
     95 H          10.6603    2.0316    0.0000 H       1  UNL1        0.0621
     96 H          10.1233    0.7216    0.0000 H       1  UNL1        0.0649
     97 H          10.1042    2.4486    0.0000 H       1  UNL1        0.0255
     98 H           9.2573    2.2216    0.0000 H       1  UNL1        0.0255
     99 H           9.4842    1.3747    0.0000 H       1  UNL1        0.0255
    100 H           8.9282   -0.2084    0.0000 H       1  UNL1        0.0910
    101 H          12.0823   -2.1253    0.0000 H       1  UNL1        0.0524
    102 H          12.9292   -1.8984    0.0000 H       1  UNL1        0.0524
    103 H          12.7023   -1.0514    0.0000 H       1  UNL1        0.0524
    104 H           7.6636   -0.5633    0.0000 H       1  UNL1        0.0340
    105 H           8.4607   -0.5633    0.0000 H       1  UNL1        0.0340
    106 H           6.6592    0.7216    0.0000 H       1  UNL1        0.0624
    107 H           7.1962    2.0316    0.0000 H       1  UNL1        0.0649
    108 H           8.5991    2.2216    0.0000 H       1  UNL1        0.0621
    109 H           8.6822    2.9116    0.0000 H       1  UNL1        0.0255
    110 H           8.0622    3.5316    0.0000 H       1  UNL1        0.0255
    111 H           7.4422    2.9116    0.0000 H       1  UNL1        0.0255
    112 H           5.4641    2.0316    0.0000 H       1  UNL1        0.0938
    113 H           4.0611    2.2216    0.0000 H       1  UNL1        0.0671
    114 H           4.2941    2.0316    0.0000 H       1  UNL1        0.0650
    115 H           3.7320   -0.2084    0.0000 H       1  UNL1        0.0646
    116 H           5.1350   -0.3984    0.0000 H       1  UNL1        0.0621
    117 H           5.7101   -1.0884    0.0000 H       1  UNL1        0.0524
    118 H           6.3301   -1.7084    0.0000 H       1  UNL1        0.0524
    119 H           6.9501   -1.0884    0.0000 H       1  UNL1        0.0524
    120 H           3.9781   -1.0884    0.0000 H       1  UNL1        0.0255
    121 H           4.5981   -1.7084    0.0000 H       1  UNL1        0.0255
    122 H           5.2181   -1.0884    0.0000 H       1  UNL1        0.0255
    123 H           4.0611    3.2216    0.0000 H       1  UNL1        0.2101
    124 H           2.8660   -0.7084    0.0000 H       1  UNL1        0.2100
    125 H           1.6900    1.9486    0.0000 H       1  UNL1        0.0524
    126 H           1.4631    1.1016    0.0000 H       1  UNL1        0.0524
    127 H           2.3100    0.8747    0.0000 H       1  UNL1        0.0524
@<TRIPOS>BOND
     1    17     1    1
     2     1    76    1
     3    21     2    1
     4     2    85    1
     5    23     3    1
     6     3    86    1
     7    30     4    1
     8     4    90    1
     9    35     5    1
    10    37     5    1
    11     6    37    1
    12     6    40    1
    13    39     7    1
    14     7    44    1
    15    41     8    1
    16    43     8    1
    17     9    43    1
    18     9    48    1
    19    47    10    1
    20    50    10    1
    21    46    11    1
    22    11    55    1
    23    12    50    1
    24    12    54    1
    25    51    13    1
    26    13   123    1
    27    52    14    1
    28    14    57    1
    29    53    15    1
    30    15   124    1
    31    16    17    1
    32    16    20    1
    33    16    21    1
    34    16    27    1
    35    17    18    1
    36    17    24    1
    37    18    19    1
    38    18    26    1
    39    18    58    1
    40    19    22    1
    41    19    23    1
    42    19    59    1
    43    20    25    1
    44    20    30    1
    45    20    60    1
    46    21    23    1
    47    21    61    1
    48    22    28    1
    49    22    29    1
    50    22    32    1
    51    23    62    1
    52    24    25    1
    53    24    63    1
    54    24    64    1
    55    25    65    1
    56    25    66    1
    57    26    31    1
    58    26    67    1
    59    26    68    1
    60    27    69    1
    61    27    70    1
    62    27    71    1
    63    28    31    2
    64    28    33    1
    65    29    34    1
    66    29    72    1
    67    29    73    1
    68    30    36    1
    69    30    74    1
    70    31    75    1
    71    32    77    1
    72    32    78    1
    73    32    79    1
    74    33    35    1
    75    33    80    1
    76    33    81    1
    77    34    35    1
    78    34    82    1
    79    34    83    1
    80    35    84    1
    81    36    87    1
    82    36    88    1
    83    36    89    1
    84    37    38    1
    85    37    91    1
    86    38    39    1
    87    38    92    1
    88    38    93    1
    89    39    41    1
    90    39    94    1
    91    40    41    1
    92    40    42    1
    93    40    95    1
    94    41    96    1
    95    42    97    1
    96    42    98    1
    97    42    99    1
    98    43    45    1
    99    43   100    1
   100    44   101    1
   101    44   102    1
   102    44   103    1
   103    45    46    1
   104    45   104    1
   105    45   105    1
   106    46    47    1
   107    46   106    1
   108    47    48    1
   109    47   107    1
   110    48    49    1
   111    48   108    1
   112    49   109    1
   113    49   110    1
   114    49   111    1
   115    50    51    1
   116    50   112    1
   117    51    52    1
   118    51   113    1
   119    52    53    1
   120    52   114    1
   121    53    54    1
   122    53   115    1
   123    54    56    1
   124    54   116    1
   125    55   117    1
   126    55   118    1
   127    55   119    1
   128    56   120    1
   129    56   121    1
   130    56   122    1
   131    57   125    1
   132    57   126    1
   133    57   127    1
