@<TRIPOS>MOLECULE
IMPHY013794
 21 21 0 0 0
SMALL
GASTEIGER

@<TRIPOS>ATOM
      1 O           2.8090    0.2239    0.0000 O.2     1  UNL1       -0.4678
      2 C           4.7770   -0.4755    0.0000 C.3     1  UNL1       -0.0465
      3 C           4.5691    0.5026    0.0000 C.3     1  UNL1        0.0055
      4 C           5.7281   -0.7845    0.0000 C.3     1  UNL1       -0.0555
      5 C           3.6180    0.8116    0.0000 C.ar    1  UNL1        0.1049
      6 C           5.9360   -1.7627    0.0000 C.3     1  UNL1       -0.0653
      7 C           3.3090    1.7627    0.0000 C.ar    1  UNL1       -0.0207
      8 C           2.3090    1.7627    0.0000 C.ar    1  UNL1       -0.0237
      9 C           2.0000    0.8116    0.0000 C.ar    1  UNL1        0.0921
     10 H           4.1574   -0.4972    0.0000 H       1  UNL1        0.0269
     11 H           4.6907   -1.0895    0.0000 H       1  UNL1        0.0269
     12 H           5.1887    0.5243    0.0000 H       1  UNL1        0.0343
     13 H           4.6554    1.1166    0.0000 H       1  UNL1        0.0343
     14 H           6.3477   -0.7629    0.0000 H       1  UNL1        0.0263
     15 H           5.8144   -0.1706    0.0000 H       1  UNL1        0.0263
     16 H           5.3295   -1.8916    0.0000 H       1  UNL1        0.0230
     17 H           6.0649   -2.3691    0.0000 H       1  UNL1        0.0230
     18 H           6.5424   -1.6338    0.0000 H       1  UNL1        0.0230
     19 H           3.6734    2.2643    0.0000 H       1  UNL1        0.0652
     20 H           1.9446    2.2643    0.0000 H       1  UNL1        0.0649
     21 H           1.4103    0.6200    0.0000 H       1  UNL1        0.1029
@<TRIPOS>BOND
     1     1     5   ar
     2     1     9   ar
     3     2     3    1
     4     2     4    1
     5     2    10    1
     6     2    11    1
     7     3     5    1
     8     3    12    1
     9     3    13    1
    10     4     6    1
    11     4    14    1
    12     4    15    1
    13     5     7   ar
    14     6    16    1
    15     6    17    1
    16     6    18    1
    17     7     8   ar
    18     7    19    1
    19     8     9   ar
    20     8    20    1
    21     9    21    1
