@<TRIPOS>MOLECULE
IMPHY016380
 28 27 0 0 0
SMALL
GASTEIGER

@<TRIPOS>ATOM
      1 O           5.4641   -1.2500    0.0000 O.2     1  UNL1       -0.2971
      2 C           6.3301    0.2500    0.0000 C.3     1  UNL1        0.0144
      3 C           4.5981    0.2500    0.0000 C.3     1  UNL1        0.0061
      4 C           5.4641   -0.2500    0.0000 C.2     1  UNL1        0.1361
      5 C           7.1962   -0.2500    0.0000 C.3     1  UNL1       -0.0466
      6 C           3.7320   -0.2500    0.0000 C.3     1  UNL1       -0.0466
      7 C           6.3301    1.2500    0.0000 C.3     1  UNL1       -0.0557
      8 C           2.8660    0.2500    0.0000 C.3     1  UNL1       -0.0555
      9 C           8.0622    0.2500    0.0000 C.3     1  UNL1       -0.0646
     10 C           2.0000   -0.2500    0.0000 C.3     1  UNL1       -0.0653
     11 H           6.8671    0.5600    0.0000 H       1  UNL1        0.0374
     12 H           4.9966    0.7249    0.0000 H       1  UNL1        0.0342
     13 H           4.1996    0.7249    0.0000 H       1  UNL1        0.0342
     14 H           6.7976   -0.7249    0.0000 H       1  UNL1        0.0269
     15 H           7.5947   -0.7249    0.0000 H       1  UNL1        0.0269
     16 H           3.3335   -0.7249    0.0000 H       1  UNL1        0.0269
     17 H           4.1306   -0.7249    0.0000 H       1  UNL1        0.0269
     18 H           6.9501    1.2500    0.0000 H       1  UNL1        0.0236
     19 H           6.3301    1.8700    0.0000 H       1  UNL1        0.0236
     20 H           5.7101    1.2500    0.0000 H       1  UNL1        0.0236
     21 H           3.2646    0.7249    0.0000 H       1  UNL1        0.0263
     22 H           2.4675    0.7249    0.0000 H       1  UNL1        0.0263
     23 H           8.3722   -0.2869    0.0000 H       1  UNL1        0.0230
     24 H           8.5991    0.5600    0.0000 H       1  UNL1        0.0230
     25 H           7.7522    0.7869    0.0000 H       1  UNL1        0.0230
     26 H           1.6900    0.2869    0.0000 H       1  UNL1        0.0230
     27 H           1.4631   -0.5600    0.0000 H       1  UNL1        0.0230
     28 H           2.3100   -0.7869    0.0000 H       1  UNL1        0.0230
@<TRIPOS>BOND
     1     1     4    2
     2     2     4    1
     3     2     5    1
     4     2     7    1
     5     2    11    1
     6     3     4    1
     7     3     6    1
     8     3    12    1
     9     3    13    1
    10     5     9    1
    11     5    14    1
    12     5    15    1
    13     6     8    1
    14     6    16    1
    15     6    17    1
    16     7    18    1
    17     7    19    1
    18     7    20    1
    19     8    10    1
    20     8    21    1
    21     8    22    1
    22     9    23    1
    23     9    24    1
    24     9    25    1
    25    10    26    1
    26    10    27    1
    27    10    28    1
