@<TRIPOS>MOLECULE
IMPHY015200
 51 51 0 0 0
SMALL
GASTEIGER

@<TRIPOS>ATOM
      1 C           5.4641    0.5000    0.0000 C.3     1  UNL1       -0.0531
      2 C           5.4641    1.5000    0.0000 C.3     1  UNL1       -0.0531
      3 C           4.5981    0.0000    0.0000 C.3     1  UNL1       -0.0531
      4 C           6.3301    2.0000    0.0000 C.3     1  UNL1       -0.0531
      5 C           4.5981   -1.0000    0.0000 C.3     1  UNL1       -0.0530
      6 C           6.3301    3.0000    0.0000 C.3     1  UNL1       -0.0531
      7 C           3.7320   -1.5000    0.0000 C.3     1  UNL1       -0.0528
      8 C           7.1962    3.5000    0.0000 C.3     1  UNL1       -0.0531
      9 C           3.7320   -2.5000    0.0000 C.3     1  UNL1       -0.0491
     10 C           7.1962    4.5000    0.0000 C.3     1  UNL1       -0.0533
     11 C           2.8660   -3.0000    0.0000 C.3     1  UNL1       -0.0277
     12 C           8.0622    5.0000    0.0000 C.3     1  UNL1       -0.0559
     13 C           2.8660   -4.0000    0.0000 C.ar    1  UNL1       -0.0474
     14 C           8.0622    6.0000    0.0000 C.3     1  UNL1       -0.0653
     15 C           2.0000   -4.5000    0.0000 C.ar    1  UNL1       -0.0586
     16 C           3.7320   -4.5000    0.0000 C.ar    1  UNL1       -0.0586
     17 C           2.0000   -5.5000    0.0000 C.ar    1  UNL1       -0.0615
     18 C           3.7320   -5.5000    0.0000 C.ar    1  UNL1       -0.0615
     19 C           2.8660   -6.0000    0.0000 C.ar    1  UNL1       -0.0617
     20 H           5.6762   -0.0826    0.0000 H       1  UNL1        0.0265
     21 H           6.0747    0.6077    0.0000 H       1  UNL1        0.0265
     22 H           5.2520    2.0826    0.0000 H       1  UNL1        0.0265
     23 H           4.8535    1.3923    0.0000 H       1  UNL1        0.0265
     24 H           4.3860    0.5826    0.0000 H       1  UNL1        0.0265
     25 H           3.9875   -0.1077    0.0000 H       1  UNL1        0.0265
     26 H           6.5422    1.4174    0.0000 H       1  UNL1        0.0265
     27 H           6.9407    2.1077    0.0000 H       1  UNL1        0.0265
     28 H           4.8101   -1.5826    0.0000 H       1  UNL1        0.0265
     29 H           5.2087   -0.8923    0.0000 H       1  UNL1        0.0265
     30 H           6.1181    3.5826    0.0000 H       1  UNL1        0.0265
     31 H           5.7196    2.8923    0.0000 H       1  UNL1        0.0265
     32 H           3.5200   -0.9174    0.0000 H       1  UNL1        0.0265
     33 H           3.1215   -1.6077    0.0000 H       1  UNL1        0.0265
     34 H           7.4082    2.9174    0.0000 H       1  UNL1        0.0265
     35 H           7.8067    3.6077    0.0000 H       1  UNL1        0.0265
     36 H           3.9441   -3.0826    0.0000 H       1  UNL1        0.0268
     37 H           4.3426   -2.3923    0.0000 H       1  UNL1        0.0268
     38 H           6.9841    5.0826    0.0000 H       1  UNL1        0.0265
     39 H           6.5856    4.3923    0.0000 H       1  UNL1        0.0265
     40 H           2.6540   -2.4174    0.0000 H       1  UNL1        0.0313
     41 H           2.2554   -3.1077    0.0000 H       1  UNL1        0.0313
     42 H           8.2742    4.4174    0.0000 H       1  UNL1        0.0263
     43 H           8.6728    5.1077    0.0000 H       1  UNL1        0.0263
     44 H           8.6822    6.0000    0.0000 H       1  UNL1        0.0230
     45 H           8.0622    6.6200    0.0000 H       1  UNL1        0.0230
     46 H           7.4422    6.0000    0.0000 H       1  UNL1        0.0230
     47 H           1.4631   -4.1900    0.0000 H       1  UNL1        0.0620
     48 H           4.2690   -4.1900    0.0000 H       1  UNL1        0.0620
     49 H           1.4631   -5.8100    0.0000 H       1  UNL1        0.0618
     50 H           4.2690   -5.8100    0.0000 H       1  UNL1        0.0618
     51 H           2.8660   -6.6200    0.0000 H       1  UNL1        0.0618
@<TRIPOS>BOND
     1     1     2    1
     2     1     3    1
     3     1    20    1
     4     1    21    1
     5     2     4    1
     6     2    22    1
     7     2    23    1
     8     3     5    1
     9     3    24    1
    10     3    25    1
    11     4     6    1
    12     4    26    1
    13     4    27    1
    14     5     7    1
    15     5    28    1
    16     5    29    1
    17     6     8    1
    18     6    30    1
    19     6    31    1
    20     7     9    1
    21     7    32    1
    22     7    33    1
    23     8    10    1
    24     8    34    1
    25     8    35    1
    26     9    11    1
    27     9    36    1
    28     9    37    1
    29    10    12    1
    30    10    38    1
    31    10    39    1
    32    11    13    1
    33    11    40    1
    34    11    41    1
    35    12    14    1
    36    12    42    1
    37    12    43    1
    38    13    15   ar
    39    13    16   ar
    40    14    44    1
    41    14    45    1
    42    14    46    1
    43    15    17   ar
    44    15    47    1
    45    16    18   ar
    46    16    48    1
    47    17    19   ar
    48    17    49    1
    49    18    19   ar
    50    18    50    1
    51    19    51    1
