@<TRIPOS>MOLECULE
IMPHY006215
 39 39 0 0 0
SMALL
GASTEIGER

@<TRIPOS>ATOM
      1 O           7.1962    1.4806    0.0000 O.2     1  UNL1       -0.2706
      2 N           6.3301    2.9806    0.0000 N.am    1  UNL1       -0.2980
      3 C           6.8301    4.5194    0.0000 C.3     1  UNL1       -0.0357
      4 C           5.8301    4.5194    0.0000 C.3     1  UNL1       -0.0357
      5 C           7.1391    3.5684    0.0000 C.3     1  UNL1        0.0150
      6 C           5.5211    3.5684    0.0000 C.3     1  UNL1        0.0150
      7 C           6.3301    1.9806    0.0000 C.2     1  UNL1        0.2394
      8 C           3.7320   -2.5194    0.0000 C.3     1  UNL1       -0.0496
      9 C           2.8660   -3.0194    0.0000 C.3     1  UNL1       -0.0530
     10 C           3.7320   -1.5194    0.0000 C.3     1  UNL1       -0.0345
     11 C           5.4641    1.4806    0.0000 C.2     1  UNL1        0.0003
     12 C           2.8660   -4.0194    0.0000 C.3     1  UNL1       -0.0559
     13 C           4.5981   -1.0194    0.0000 C.2     1  UNL1       -0.0840
     14 C           5.4641    0.4806    0.0000 C.2     1  UNL1       -0.0571
     15 C           2.0000   -4.5194    0.0000 C.3     1  UNL1       -0.0653
     16 C           4.5981   -0.0194    0.0000 C.2     1  UNL1       -0.0655
     17 H           5.8949    5.1360    0.0000 H       1  UNL1        0.0281
     18 H           5.2237    4.6483    0.0000 H       1  UNL1        0.0281
     19 H           7.4366    4.6483    0.0000 H       1  UNL1        0.0281
     20 H           6.7653    5.1360    0.0000 H       1  UNL1        0.0281
     21 H           4.9547    3.8205    0.0000 H       1  UNL1        0.0465
     22 H           5.2111    3.0314    0.0000 H       1  UNL1        0.0465
     23 H           7.4491    3.0314    0.0000 H       1  UNL1        0.0465
     24 H           7.7055    3.8205    0.0000 H       1  UNL1        0.0465
     25 H           3.9441   -3.1020    0.0000 H       1  UNL1        0.0268
     26 H           4.3426   -2.4118    0.0000 H       1  UNL1        0.0268
     27 H           2.6540   -2.4368    0.0000 H       1  UNL1        0.0265
     28 H           2.2554   -3.1271    0.0000 H       1  UNL1        0.0265
     29 H           3.5200   -0.9368    0.0000 H       1  UNL1        0.0307
     30 H           3.1215   -1.6271    0.0000 H       1  UNL1        0.0307
     31 H           3.0781   -4.6020    0.0000 H       1  UNL1        0.0263
     32 H           3.4766   -3.9118    0.0000 H       1  UNL1        0.0263
     33 H           4.9272    1.7906    0.0000 H       1  UNL1        0.0669
     34 H           5.1350   -1.3294    0.0000 H       1  UNL1        0.0572
     35 H           6.0010    0.1706    0.0000 H       1  UNL1        0.0619
     36 H           1.6900   -3.9825    0.0000 H       1  UNL1        0.0230
     37 H           1.4631   -4.8294    0.0000 H       1  UNL1        0.0230
     38 H           2.3100   -5.0564    0.0000 H       1  UNL1        0.0230
     39 H           4.0611    0.2906    0.0000 H       1  UNL1        0.0614
@<TRIPOS>BOND
     1     1     7    2
     2     2     5    1
     3     2     6    1
     4     2     7   am
     5     3     4    1
     6     3     5    1
     7     3    19    1
     8     3    20    1
     9     4     6    1
    10     4    17    1
    11     4    18    1
    12     5    23    1
    13     5    24    1
    14     6    21    1
    15     6    22    1
    16     7    11    1
    17     8     9    1
    18     8    10    1
    19     8    25    1
    20     8    26    1
    21     9    12    1
    22     9    27    1
    23     9    28    1
    24    10    13    1
    25    10    29    1
    26    10    30    1
    27    11    14    2
    28    11    33    1
    29    12    15    1
    30    12    31    1
    31    12    32    1
    32    13    16    2
    33    13    34    1
    34    14    16    1
    35    14    35    1
    36    15    36    1
    37    15    37    1
    38    15    38    1
    39    16    39    1
