@<TRIPOS>MOLECULE
IMPHY016613
 30 31 0 0 0
SMALL
GASTEIGER

@<TRIPOS>ATOM
      1 S           3.7320   -0.5000    0.0000 S.3     1  UNL1       -0.0881
      2 S           3.7320    0.5000    0.0000 S.3     1  UNL1       -0.0881
      3 C           2.8660   -2.0000    0.0000 C.ar    1  UNL1       -0.0367
      4 C           4.5981    2.0000    0.0000 C.ar    1  UNL1       -0.0367
      5 C           2.8660   -1.0000    0.0000 C.3     1  UNL1        0.0290
      6 C           4.5981    1.0000    0.0000 C.3     1  UNL1        0.0290
      7 C           2.0000   -2.5000    0.0000 C.ar    1  UNL1       -0.0578
      8 C           5.4641    2.5000    0.0000 C.ar    1  UNL1       -0.0578
      9 C           3.7320   -2.5000    0.0000 C.ar    1  UNL1       -0.0578
     10 C           3.7320    2.5000    0.0000 C.ar    1  UNL1       -0.0578
     11 C           2.0000   -3.5000    0.0000 C.ar    1  UNL1       -0.0615
     12 C           5.4641    3.5000    0.0000 C.ar    1  UNL1       -0.0615
     13 C           3.7320   -3.5000    0.0000 C.ar    1  UNL1       -0.0615
     14 C           3.7320    3.5000    0.0000 C.ar    1  UNL1       -0.0615
     15 C           2.8660   -4.0000    0.0000 C.ar    1  UNL1       -0.0617
     16 C           4.5981    4.0000    0.0000 C.ar    1  UNL1       -0.0617
     17 H           2.6540   -0.4174    0.0000 H       1  UNL1        0.0433
     18 H           2.2554   -1.1077    0.0000 H       1  UNL1        0.0433
     19 H           4.8101    0.4174    0.0000 H       1  UNL1        0.0433
     20 H           5.2087    1.1077    0.0000 H       1  UNL1        0.0433
     21 H           1.4631   -2.1900    0.0000 H       1  UNL1        0.0621
     22 H           6.0010    2.1900    0.0000 H       1  UNL1        0.0621
     23 H           4.2690   -2.1900    0.0000 H       1  UNL1        0.0621
     24 H           3.1951    2.1900    0.0000 H       1  UNL1        0.0621
     25 H           1.4631   -3.8100    0.0000 H       1  UNL1        0.0618
     26 H           6.0010    3.8100    0.0000 H       1  UNL1        0.0618
     27 H           4.2690   -3.8100    0.0000 H       1  UNL1        0.0618
     28 H           3.1951    3.8100    0.0000 H       1  UNL1        0.0618
     29 H           2.8660   -4.6200    0.0000 H       1  UNL1        0.0618
     30 H           4.5981    4.6200    0.0000 H       1  UNL1        0.0618
@<TRIPOS>BOND
     1     1     2    1
     2     1     5    1
     3     2     6    1
     4     3     5    1
     5     3     7   ar
     6     3     9   ar
     7     4     6    1
     8     4     8   ar
     9     4    10   ar
    10     5    17    1
    11     5    18    1
    12     6    19    1
    13     6    20    1
    14     7    11   ar
    15     7    21    1
    16     8    12   ar
    17     8    22    1
    18     9    13   ar
    19     9    23    1
    20    10    14   ar
    21    10    24    1
    22    11    15   ar
    23    11    25    1
    24    12    16   ar
    25    12    26    1
    26    13    15   ar
    27    13    27    1
    28    14    16   ar
    29    14    28    1
    30    15    29    1
    31    16    30    1
