@<TRIPOS>MOLECULE
IMPHY011254
 63 66 0 0 0
SMALL
GASTEIGER

@<TRIPOS>ATOM
      1 O           7.7331    2.6076    0.0000 O.3     1  UNL1       -0.4612
      2 O           4.2690   -3.3924    0.0000 O.3     1  UNL1       -0.3313
      3 O           2.5369   -5.3924    0.0000 O.3     1  UNL1       -0.3865
      4 O           4.2690   -6.3924    0.0000 O.3     1  UNL1       -0.3864
      5 O           6.0010   -3.3924    0.0000 O.3     1  UNL1       -0.4608
      6 O           6.0010   -5.3924    0.0000 O.3     1  UNL1       -0.3829
      7 O           6.0010    2.6076    0.0000 O.2     1  UNL1       -0.2456
      8 O           2.5369   -2.3924    0.0000 O.3     1  UNL1       -0.3924
      9 N           9.6818    5.3100    0.0000 N.3     1  UNL1       -0.2990
     10 C           8.7036    5.1021    0.0000 C.3     1  UNL1        0.0164
     11 C           8.5991    4.1076    0.0000 C.3     1  UNL1        0.0101
     12 C           8.2088    5.9643    0.0000 C.3     1  UNL1       -0.0358
     13 C           9.5127    3.7008    0.0000 C.3     1  UNL1       -0.0328
     14 C          10.1818    4.4440    0.0000 C.3     1  UNL1       -0.0004
     15 C           9.7831    6.2989    0.0000 C.3     1  UNL1       -0.0008
     16 C           8.8747    6.7024    0.0000 C.3     1  UNL1       -0.0388
     17 C           7.7331    3.6076    0.0000 C.3     1  UNL1        0.0970
     18 C           3.4030   -4.8924    0.0000 C.3     1  UNL1        0.1120
     19 C           4.2690   -5.3924    0.0000 C.3     1  UNL1        0.1152
     20 C           3.4030   -3.8924    0.0000 C.3     1  UNL1        0.1140
     21 C           5.1350   -4.8924    0.0000 C.3     1  UNL1        0.1454
     22 C           5.1350   -3.8924    0.0000 C.3     1  UNL1        0.2308
     23 C           6.8671    2.1076    0.0000 C.2     1  UNL1        0.3320
     24 C           2.5369   -3.3924    0.0000 C.3     1  UNL1        0.0731
     25 C           6.8671    1.1076    0.0000 C.2     1  UNL1        0.0231
     26 C           6.0010   -2.3924    0.0000 C.ar    1  UNL1        0.1240
     27 C           6.0010    0.6076    0.0000 C.2     1  UNL1       -0.0478
     28 C           6.0010   -0.3924    0.0000 C.ar    1  UNL1       -0.0246
     29 C           6.8671   -1.8924    0.0000 C.ar    1  UNL1       -0.0193
     30 C           5.1350   -1.8924    0.0000 C.ar    1  UNL1       -0.0193
     31 C           6.8671   -0.8924    0.0000 C.ar    1  UNL1       -0.0511
     32 C           5.1350   -0.8924    0.0000 C.ar    1  UNL1       -0.0511
     33 H           7.8720    4.9264    0.0000 H       1  UNL1        0.0466
     34 H           8.0791    4.4452    0.0000 H       1  UNL1        0.0349
     35 H           7.7946    6.4256    0.0000 H       1  UNL1        0.0281
     36 H           7.7065    5.6009    0.0000 H       1  UNL1        0.0281
     37 H           9.2027    3.1639    0.0000 H       1  UNL1        0.0282
     38 H          10.0142    3.3364    0.0000 H       1  UNL1        0.0282
     39 H          10.5967    3.9832    0.0000 H       1  UNL1        0.0427
     40 H          10.6834    4.8084    0.0000 H       1  UNL1        0.0427
     41 H          10.3898    6.1712    0.0000 H       1  UNL1        0.0427
     42 H           9.9739    6.8888    0.0000 H       1  UNL1        0.0427
     43 H           9.1845    7.2395    0.0000 H       1  UNL1        0.0278
     44 H           8.3732    7.0670    0.0000 H       1  UNL1        0.0278
     45 H           7.5210    4.1902    0.0000 H       1  UNL1        0.0701
     46 H           7.1225    3.4999    0.0000 H       1  UNL1        0.0701
     47 H           3.4030   -5.5124    0.0000 H       1  UNL1        0.0647
     48 H           4.8059   -5.7024    0.0000 H       1  UNL1        0.0648
     49 H           3.4030   -3.2724    0.0000 H       1  UNL1        0.0647
     50 H           5.6720   -4.5824    0.0000 H       1  UNL1        0.0683
     51 H           5.1350   -3.2724    0.0000 H       1  UNL1        0.1084
     52 H           1.9264   -3.2848    0.0000 H       1  UNL1        0.0584
     53 H           2.3249   -3.9750    0.0000 H       1  UNL1        0.0584
     54 H           2.0000   -5.0824    0.0000 H       1  UNL1        0.2100
     55 H           3.7320   -6.7024    0.0000 H       1  UNL1        0.2100
     56 H           7.4040    0.7976    0.0000 H       1  UNL1        0.0689
     57 H           6.5380   -5.0824    0.0000 H       1  UNL1        0.2102
     58 H           2.0000   -2.0824    0.0000 H       1  UNL1        0.2095
     59 H           5.4641    0.9176    0.0000 H       1  UNL1        0.0626
     60 H           7.4040   -2.2024    0.0000 H       1  UNL1        0.0654
     61 H           4.5981   -2.2024    0.0000 H       1  UNL1        0.0654
     62 H           7.4040   -0.5824    0.0000 H       1  UNL1        0.0625
     63 H           4.5981   -0.5824    0.0000 H       1  UNL1        0.0625
@<TRIPOS>BOND
     1     1    17    1
     2     1    23    1
     3     2    20    1
     4     2    22    1
     5    18     3    1
     6     3    54    1
     7    19     4    1
     8     4    55    1
     9    22     5    1
    10     5    26    1
    11    21     6    1
    12     6    57    1
    13     7    23    2
    14     8    24    1
    15     8    58    1
    16     9    10    1
    17     9    14    1
    18     9    15    1
    19    10    11    1
    20    10    12    1
    21    10    33    1
    22    11    13    1
    23    11    17    1
    24    11    34    1
    25    12    16    1
    26    12    35    1
    27    12    36    1
    28    13    14    1
    29    13    37    1
    30    13    38    1
    31    14    39    1
    32    14    40    1
    33    15    16    1
    34    15    41    1
    35    15    42    1
    36    16    43    1
    37    16    44    1
    38    17    45    1
    39    17    46    1
    40    18    19    1
    41    18    20    1
    42    18    47    1
    43    19    21    1
    44    19    48    1
    45    20    24    1
    46    20    49    1
    47    21    22    1
    48    21    50    1
    49    22    51    1
    50    23    25    1
    51    24    52    1
    52    24    53    1
    53    25    27    2
    54    25    56    1
    55    26    29   ar
    56    26    30   ar
    57    27    28    1
    58    27    59    1
    59    28    31   ar
    60    28    32   ar
    61    29    31   ar
    62    29    60    1
    63    30    32   ar
    64    30    61    1
    65    31    62    1
    66    32    63    1
