@<TRIPOS>MOLECULE
IMPHY009975
 42 43 0 0 0
SMALL
GASTEIGER

@<TRIPOS>ATOM
      1 O           3.0000    1.0987    0.0000 O.3     1  UNL1       -0.3883
      2 C           5.2320   -0.7673    0.0000 C.3     1  UNL1       -0.0251
      3 C           5.2320    0.2327    0.0000 C.3     1  UNL1       -0.0267
      4 C           3.5000    0.2327    0.0000 C.3     1  UNL1        0.0687
      5 C           4.3660    0.7327    0.0000 C.3     1  UNL1       -0.0199
      6 C           4.3660   -1.2673    0.0000 C.3     1  UNL1       -0.0445
      7 C           3.5000   -0.7673    0.0000 C.3     1  UNL1       -0.0232
      8 C           6.1260    0.7674    0.0000 C.3     1  UNL1       -0.0223
      9 C           6.1260   -1.3020    0.0000 C.3     1  UNL1       -0.0291
     10 C           2.5000    0.2327    0.0000 C.3     1  UNL1       -0.0178
     11 C           5.2320   -1.7673    0.0000 C.3     1  UNL1       -0.0590
     12 C           7.0321    0.2535    0.0000 C.2     1  UNL1       -0.0848
     13 C           7.0321   -0.7881    0.0000 C.2     1  UNL1       -0.0871
     14 C           6.1144    1.7673    0.0000 C.3     1  UNL1       -0.0587
     15 C           2.0000   -0.6333    0.0000 C.3     1  UNL1       -0.0601
     16 C           2.0000    1.0987    0.0000 C.3     1  UNL1       -0.0601
     17 H           5.2273    0.8527    0.0000 H       1  UNL1        0.0313
     18 H           4.7646    1.2076    0.0000 H       1  UNL1        0.0296
     19 H           3.9675    1.2076    0.0000 H       1  UNL1        0.0296
     20 H           3.9675   -1.7422    0.0000 H       1  UNL1        0.0272
     21 H           4.7646   -1.7422    0.0000 H       1  UNL1        0.0272
     22 H           2.8894   -0.6596    0.0000 H       1  UNL1        0.0293
     23 H           3.2880   -1.3499    0.0000 H       1  UNL1        0.0293
     24 H           6.6599    1.0825    0.0000 H       1  UNL1        0.0343
     25 H           5.7214   -1.7718    0.0000 H       1  UNL1        0.0313
     26 H           6.5196   -1.7810    0.0000 H       1  UNL1        0.0313
     27 H           2.8100   -0.3042    0.0000 H       1  UNL1        0.0323
     28 H           4.6120   -1.7673    0.0000 H       1  UNL1        0.0235
     29 H           5.2320   -2.3873    0.0000 H       1  UNL1        0.0235
     30 H           5.8520   -1.7673    0.0000 H       1  UNL1        0.0235
     31 H           7.5678    0.5656    0.0000 H       1  UNL1        0.0572
     32 H           7.5678   -1.1002    0.0000 H       1  UNL1        0.0569
     33 H           6.7344    1.7745    0.0000 H       1  UNL1        0.0235
     34 H           6.1073    2.3873    0.0000 H       1  UNL1        0.0235
     35 H           5.4945    1.7601    0.0000 H       1  UNL1        0.0235
     36 H           3.3100    1.6357    0.0000 H       1  UNL1        0.2102
     37 H           2.5369    1.4087    0.0000 H       1  UNL1        0.0233
     38 H           1.6900    1.6357    0.0000 H       1  UNL1        0.0233
     39 H           1.4631    0.7887    0.0000 H       1  UNL1        0.0233
     40 H           1.4631   -0.3233    0.0000 H       1  UNL1        0.0233
     41 H           1.6900   -1.1703    0.0000 H       1  UNL1        0.0233
     42 H           2.5369   -0.9433    0.0000 H       1  UNL1        0.0233
@<TRIPOS>BOND
     1     1     4    1
     2     1    36    1
     3     2     3    1
     4     2     6    1
     5     2     9    1
     6     2    11    1
     7     3     5    1
     8     3     8    1
     9     3    17    1
    10     4     5    1
    11     4     7    1
    12     4    10    1
    13     5    18    1
    14     5    19    1
    15     6     7    1
    16     6    20    1
    17     6    21    1
    18     7    22    1
    19     7    23    1
    20     8    12    1
    21     8    14    1
    22     8    24    1
    23     9    13    1
    24     9    25    1
    25     9    26    1
    26    10    15    1
    27    10    16    1
    28    10    27    1
    29    11    28    1
    30    11    29    1
    31    11    30    1
    32    12    13    2
    33    12    31    1
    34    13    32    1
    35    14    33    1
    36    14    34    1
    37    14    35    1
    38    15    40    1
    39    15    41    1
    40    15    42    1
    41    16    37    1
    42    16    38    1
    43    16    39    1
