@<TRIPOS>MOLECULE
IMPHY000685
 16 16 0 0 0
SMALL
GASTEIGER

@<TRIPOS>ATOM
      1 O           2.8090   -0.3239    0.0000 O.2     1  UNL1       -0.4652
      2 O           4.7770   -1.0233    0.0000 O.3     1  UNL1       -0.3844
      3 C           4.5691   -0.0452    0.0000 C.3     1  UNL1        0.1098
      4 C           3.6180    0.2638    0.0000 C.ar    1  UNL1        0.1329
      5 C           5.3122    0.6240    0.0000 C.3     1  UNL1       -0.0318
      6 C           3.3090    1.2149    0.0000 C.ar    1  UNL1       -0.0181
      7 C           2.3090    1.2149    0.0000 C.ar    1  UNL1       -0.0236
      8 C           2.0000    0.2638    0.0000 C.ar    1  UNL1        0.0922
      9 H           3.9374   -0.6139    0.0000 H       1  UNL1        0.0672
     10 H           5.7271    0.1632    0.0000 H       1  UNL1        0.0259
     11 H           5.7730    1.0388    0.0000 H       1  UNL1        0.0259
     12 H           4.8974    1.0847    0.0000 H       1  UNL1        0.0259
     13 H           3.6734    1.7165    0.0000 H       1  UNL1        0.0653
     14 H           1.9446    1.7165    0.0000 H       1  UNL1        0.0649
     15 H           1.4103    0.0723    0.0000 H       1  UNL1        0.1029
     16 H           5.3667   -1.2149    0.0000 H       1  UNL1        0.2104
@<TRIPOS>BOND
     1     1     4   ar
     2     1     8   ar
     3     2     3    1
     4     2    16    1
     5     3     4    1
     6     3     5    1
     7     3     9    1
     8     4     6   ar
     9     5    10    1
    10     5    11    1
    11     5    12    1
    12     6     7   ar
    13     6    13    1
    14     7     8   ar
    15     7    14    1
    16     8    15    1
