@<TRIPOS>MOLECULE
IMPHY001562
 74 78 0 0 0
SMALL
GASTEIGER

@<TRIPOS>ATOM
      1 O           7.7942   -3.1241    0.0000 O.2     1  UNL1       -0.2702
      2 O          13.0564   -2.1483    0.0000 O.3     1  UNL1       -0.5033
      3 O          13.0564   -0.1000    0.0000 O.3     1  UNL1       -0.5033
      4 O           7.0326   -0.0316    0.0000 O.2     1  UNL1       -0.2702
      5 O           7.7942   -5.1241    0.0000 O.3     1  UNL1       -0.5033
      6 O           9.5262   -6.1241    0.0000 O.3     1  UNL1       -0.5033
      7 O           2.6106   -5.6070    0.0000 O.3     1  UNL1       -0.5068
      8 O           5.4875    5.8515    0.0000 O.3     1  UNL1       -0.5068
      9 N           6.8094   -1.9505    0.0000 N.am    1  UNL1       -0.3110
     10 N           8.3594    1.0816    0.0000 N.am    1  UNL1       -0.3110
     11 C           9.5262   -2.1241    0.0000 C.ar    1  UNL1        0.0029
     12 C          10.3923   -1.6241    0.0000 C.ar    1  UNL1       -0.0057
     13 C           8.6602   -1.6241    0.0000 C.ar    1  UNL1        0.0571
     14 C          10.3923   -0.6241    0.0000 C.ar    1  UNL1       -0.0129
     15 C           8.6602   -0.6241    0.0000 C.ar    1  UNL1        0.0500
     16 C           9.5262   -0.1241    0.0000 C.ar    1  UNL1       -0.0410
     17 C           9.5262   -3.1241    0.0000 C.ar    1  UNL1       -0.0129
     18 C          11.2862   -2.1588    0.0000 C.ar    1  UNL1       -0.0082
     19 C           7.7942   -2.1241    0.0000 C.2     1  UNL1        0.2454
     20 C          11.2862   -0.0895    0.0000 C.ar    1  UNL1       -0.0088
     21 C           8.0174    0.1419    0.0000 C.2     1  UNL1        0.2449
     22 C          12.1923   -1.6450    0.0000 C.ar    1  UNL1        0.1588
     23 C           6.1666   -2.7164    0.0000 C.3     1  UNL1        0.0159
     24 C          12.1923   -0.6033    0.0000 C.ar    1  UNL1        0.1588
     25 C           8.6602   -3.6241    0.0000 C.ar    1  UNL1       -0.0088
     26 C           7.7166    1.8476    0.0000 C.3     1  UNL1        0.0159
     27 C          10.3923   -3.6241    0.0000 C.ar    1  UNL1       -0.0503
     28 C           5.1818   -2.5429    0.0000 C.3     1  UNL1       -0.0120
     29 C           8.0587    2.7873    0.0000 C.3     1  UNL1       -0.0120
     30 C           8.6602   -4.6241    0.0000 C.ar    1  UNL1        0.1588
     31 C          10.3923   -4.6241    0.0000 C.ar    1  UNL1       -0.0160
     32 C           4.5390   -3.3088    0.0000 C.ar    1  UNL1       -0.0457
     33 C           7.4159    3.5534    0.0000 C.ar    1  UNL1       -0.0457
     34 C           9.5262   -5.1241    0.0000 C.ar    1  UNL1        0.1582
     35 C           3.5542   -3.1353    0.0000 C.ar    1  UNL1       -0.0551
     36 C           4.8810   -4.2486    0.0000 C.ar    1  UNL1       -0.0551
     37 C           7.7579    4.4931    0.0000 C.ar    1  UNL1       -0.0551
     38 C           6.4311    3.3797    0.0000 C.ar    1  UNL1       -0.0551
     39 C           2.9114   -3.9012    0.0000 C.ar    1  UNL1       -0.0199
     40 C           4.2382   -5.0146    0.0000 C.ar    1  UNL1       -0.0199
     41 C           7.1151    5.2591    0.0000 C.ar    1  UNL1       -0.0199
     42 C           5.7883    4.1458    0.0000 C.ar    1  UNL1       -0.0199
     43 C           3.2534   -4.8409    0.0000 C.ar    1  UNL1        0.1169
     44 C           6.1303    5.0855    0.0000 C.ar    1  UNL1        0.1169
     45 H           9.5262    0.4959    0.0000 H       1  UNL1        0.0631
     46 H          11.2790   -2.7788    0.0000 H       1  UNL1        0.0661
     47 H          11.2790    0.5305    0.0000 H       1  UNL1        0.0661
     48 H           5.9545   -3.2990    0.0000 H       1  UNL1        0.0465
     49 H           6.7035   -3.0264    0.0000 H       1  UNL1        0.0465
     50 H           6.5973   -1.3679    0.0000 H       1  UNL1        0.1490
     51 H           8.1233   -3.3141    0.0000 H       1  UNL1        0.0661
     52 H           7.1797    2.1576    0.0000 H       1  UNL1        0.0465
     53 H           7.3181    1.3727    0.0000 H       1  UNL1        0.0465
     54 H          10.9292   -3.3141    0.0000 H       1  UNL1        0.0625
     55 H           8.9700    1.1893    0.0000 H       1  UNL1        0.1490
     56 H           5.3938   -1.9603    0.0000 H       1  UNL1        0.0328
     57 H           4.6448   -2.2329    0.0000 H       1  UNL1        0.0328
     58 H           8.5956    2.4773    0.0000 H       1  UNL1        0.0328
     59 H           8.4572    3.2623    0.0000 H       1  UNL1        0.0328
     60 H          10.9292   -4.9341    0.0000 H       1  UNL1        0.0655
     61 H           3.3421   -2.5527    0.0000 H       1  UNL1        0.0621
     62 H           5.4915   -4.3562    0.0000 H       1  UNL1        0.0621
     63 H          13.5945   -1.8404    0.0000 H       1  UNL1        0.2923
     64 H          13.0540    0.5200    0.0000 H       1  UNL1        0.2923
     65 H           8.3685    4.6007    0.0000 H       1  UNL1        0.0621
     66 H           6.2190    2.7971    0.0000 H       1  UNL1        0.0621
     67 H           2.3008   -3.7935    0.0000 H       1  UNL1        0.0654
     68 H           4.4502   -5.5972    0.0000 H       1  UNL1        0.0654
     69 H           7.3272    5.8417    0.0000 H       1  UNL1        0.0654
     70 H           5.1777    4.0381    0.0000 H       1  UNL1        0.0654
     71 H           7.7942   -5.7441    0.0000 H       1  UNL1        0.2923
     72 H          10.0632   -6.4341    0.0000 H       1  UNL1        0.2923
     73 H           2.0000   -5.4993    0.0000 H       1  UNL1        0.2921
     74 H           5.6996    6.4341    0.0000 H       1  UNL1        0.2921
@<TRIPOS>BOND
     1     1    19    2
     2     2    22    1
     3     2    63    1
     4     3    24    1
     5     3    64    1
     6     4    21    2
     7     5    30    1
     8     5    71    1
     9     6    34    1
    10     6    72    1
    11     7    43    1
    12     7    73    1
    13     8    44    1
    14     8    74    1
    15     9    19   am
    16     9    23    1
    17     9    50    1
    18    10    21   am
    19    10    26    1
    20    10    55    1
    21    11    12   ar
    22    11    13   ar
    23    11    17    1
    24    12    14   ar
    25    12    18   ar
    26    13    15   ar
    27    13    19    1
    28    14    16   ar
    29    14    20   ar
    30    15    16   ar
    31    15    21    1
    32    16    45    1
    33    17    25   ar
    34    17    27   ar
    35    18    22   ar
    36    18    46    1
    37    20    24   ar
    38    20    47    1
    39    22    24   ar
    40    23    28    1
    41    23    48    1
    42    23    49    1
    43    25    30   ar
    44    25    51    1
    45    26    29    1
    46    26    52    1
    47    26    53    1
    48    27    31   ar
    49    27    54    1
    50    28    32    1
    51    28    56    1
    52    28    57    1
    53    29    33    1
    54    29    58    1
    55    29    59    1
    56    30    34   ar
    57    31    34   ar
    58    31    60    1
    59    32    35   ar
    60    32    36   ar
    61    33    37   ar
    62    33    38   ar
    63    35    39   ar
    64    35    61    1
    65    36    40   ar
    66    36    62    1
    67    37    41   ar
    68    37    65    1
    69    38    42   ar
    70    38    66    1
    71    39    43   ar
    72    39    67    1
    73    40    43   ar
    74    40    68    1
    75    41    44   ar
    76    41    69    1
    77    42    44   ar
    78    42    70    1
