@<TRIPOS>MOLECULE
IMPHY009719
 24 25 0 0 0
SMALL
GASTEIGER

@<TRIPOS>ATOM
      1 O           6.2385    0.7345    0.0000 O.2     1  UNL1       -0.2965
      2 C           3.7147   -0.2226    0.0000 C.3     1  UNL1       -0.0285
      3 C           5.1137   -0.7314    0.0000 C.3     1  UNL1        0.0265
      4 C           3.9735    0.7433    0.0000 C.3     1  UNL1        0.0183
      5 C           3.2369    1.7259    0.0000 C.3     1  UNL1       -0.0398
      6 C           2.3420   -0.8146    0.0000 C.3     1  UNL1       -0.0487
      7 C           2.0000    0.1251    0.0000 C.3     1  UNL1       -0.0432
      8 C           5.3725    0.2345    0.0000 C.2     1  UNL1        0.1422
      9 C           6.0272   -1.1382    0.0000 C.3     1  UNL1       -0.0528
     10 C           5.0091   -1.7259    0.0000 C.3     1  UNL1       -0.0528
     11 H           3.7328   -0.8423    0.0000 H       1  UNL1        0.0310
     12 H           3.9595    0.1235    0.0000 H       1  UNL1        0.0378
     13 H           3.5547    2.2583    0.0000 H       1  UNL1        0.0275
     14 H           2.6238    1.8179    0.0000 H       1  UNL1        0.0275
     15 H           1.7636   -1.0379    0.0000 H       1  UNL1        0.0268
     16 H           2.5765   -1.3886    0.0000 H       1  UNL1        0.0268
     17 H           1.8057    0.7138    0.0000 H       1  UNL1        0.0272
     18 H           1.4142   -0.0781    0.0000 H       1  UNL1        0.0272
     19 H           4.3925   -1.6611    0.0000 H       1  UNL1        0.0239
     20 H           4.9443   -2.3425    0.0000 H       1  UNL1        0.0239
     21 H           5.6257   -1.7908    0.0000 H       1  UNL1        0.0239
     22 H           5.7750   -1.7046    0.0000 H       1  UNL1        0.0239
     23 H           6.5936   -1.3903    0.0000 H       1  UNL1        0.0239
     24 H           6.2794   -0.5718    0.0000 H       1  UNL1        0.0239
@<TRIPOS>BOND
     1     1     8    2
     2     2     3    1
     3     2     5    1
     4     2     6    1
     5     2    11    1
     6     3     8    1
     7     3     9    1
     8     3    10    1
     9     4     5    1
    10     4     7    1
    11     4     8    1
    12     4    12    1
    13     5    13    1
    14     5    14    1
    15     6     7    1
    16     6    15    1
    17     6    16    1
    18     7    17    1
    19     7    18    1
    20     9    22    1
    21     9    23    1
    22     9    24    1
    23    10    19    1
    24    10    20    1
    25    10    21    1
