@<TRIPOS>MOLECULE
IMPHY008422
 59 61 0 0 0
SMALL
GASTEIGER

@<TRIPOS>ATOM
      1 O           4.6660   -3.6175    0.0000 O.3     1  UNL1       -0.3886
      2 O           6.3981   -2.6175    0.0000 O.3     1  UNL1       -0.3845
      3 O           7.3022   -1.1207    0.0000 O.2     1  UNL1       -0.5060
      4 O           3.7782    0.9139    0.0000 O.2     1  UNL1       -0.2835
      5 O           5.5442    1.9517    0.0000 O.2     1  UNL1       -0.2834
      6 O           8.1898    2.4242    0.0000 O.3     1  UNL1       -0.4642
      7 O           7.3296    3.9275    0.0000 O.2     1  UNL1       -0.2512
      8 C           3.8000   -2.1175    0.0000 C.3     1  UNL1        0.0024
      9 C           3.8000   -1.1175    0.0000 C.3     1  UNL1        0.0029
     10 C           2.9061   -2.6522    0.0000 C.3     1  UNL1       -0.0288
     11 C           2.9061   -0.5829    0.0000 C.3     1  UNL1       -0.0431
     12 C           4.6660   -2.6175    0.0000 C.3     1  UNL1        0.0894
     13 C           2.0000   -2.1384    0.0000 C.3     1  UNL1       -0.0475
     14 C           2.0000   -1.0967    0.0000 C.3     1  UNL1       -0.0518
     15 C           4.6660   -0.6175    0.0000 C.2     1  UNL1        0.0186
     16 C           5.5321   -2.1175    0.0000 C.3     1  UNL1        0.1100
     17 C           3.8000   -0.1175    0.0000 C.3     1  UNL1       -0.0551
     18 C           5.5321   -1.1175    0.0000 C.2     1  UNL1        0.0326
     19 C           2.4161   -3.5240    0.0000 C.3     1  UNL1       -0.0594
     20 C           3.4160   -3.5124    0.0000 C.3     1  UNL1       -0.0594
     21 C           4.6500    0.4240    0.0000 C.2     1  UNL1        0.2298
     22 C           6.4421   -0.6107    0.0000 C.2     1  UNL1        0.1302
     23 C           6.4501    0.4309    0.0000 C.2     1  UNL1        0.0508
     24 C           5.5480    0.9517    0.0000 C.2     1  UNL1        0.2325
     25 C           7.3180    0.9276    0.0000 C.3     1  UNL1        0.0228
     26 C           7.3219    1.9276    0.0000 C.3     1  UNL1        0.0992
     27 C           8.1821    0.4242    0.0000 C.3     1  UNL1       -0.0550
     28 C           8.1937    3.4242    0.0000 C.2     1  UNL1        0.3040
     29 C           9.0616    3.9209    0.0000 C.3     1  UNL1        0.0332
     30 H           3.8066   -2.9675    0.0000 H       1  UNL1        0.0340
     31 H           3.3107   -0.1131    0.0000 H       1  UNL1        0.0274
     32 H           2.5124   -0.1039    0.0000 H       1  UNL1        0.0274
     33 H           5.2030   -2.9275    0.0000 H       1  UNL1        0.0626
     34 H           1.3891   -2.0323    0.0000 H       1  UNL1        0.0271
     35 H           1.7909   -2.7220    0.0000 H       1  UNL1        0.0271
     36 H           1.7909   -0.5130    0.0000 H       1  UNL1        0.0266
     37 H           1.3891   -1.2028    0.0000 H       1  UNL1        0.0266
     38 H           6.0690   -1.8075    0.0000 H       1  UNL1        0.0671
     39 H           4.4200   -0.1175    0.0000 H       1  UNL1        0.0238
     40 H           3.8000    0.5025    0.0000 H       1  UNL1        0.0238
     41 H           3.1800   -0.1175    0.0000 H       1  UNL1        0.0238
     42 H           1.8756   -3.2202    0.0000 H       1  UNL1        0.0235
     43 H           2.1123   -4.0644    0.0000 H       1  UNL1        0.0235
     44 H           2.8827   -3.8286    0.0000 H       1  UNL1        0.0235
     45 H           3.7322   -4.0457    0.0000 H       1  UNL1        0.0235
     46 H           3.9494   -3.1962    0.0000 H       1  UNL1        0.0235
     47 H           2.9566   -3.8277    0.0000 H       1  UNL1        0.0235
     48 H           5.2030   -3.9275    0.0000 H       1  UNL1        0.2099
     49 H           6.3981   -3.2375    0.0000 H       1  UNL1        0.2103
     50 H           7.8562    1.2355    0.0000 H       1  UNL1        0.0381
     51 H           7.8427   -0.8169    0.0000 H       1  UNL1        0.2922
     52 H           7.1121    2.5110    0.0000 H       1  UNL1        0.0703
     53 H           6.7109    1.8222    0.0000 H       1  UNL1        0.0703
     54 H           7.8701   -0.1115    0.0000 H       1  UNL1        0.0237
     55 H           8.7179    0.1122    0.0000 H       1  UNL1        0.0237
     56 H           8.4942    0.9600    0.0000 H       1  UNL1        0.0237
     57 H           9.3696    3.3827    0.0000 H       1  UNL1        0.0342
     58 H           9.5998    4.2288    0.0000 H       1  UNL1        0.0342
     59 H           8.7537    4.4590    0.0000 H       1  UNL1        0.0342
@<TRIPOS>BOND
     1    12     1    1
     2     1    48    1
     3    16     2    1
     4     2    49    1
     5     3    22    1
     6     3    51    1
     7     4    21    2
     8     5    24    2
     9     6    26    1
    10     6    28    1
    11     7    28    2
    12     8     9    1
    13     8    10    1
    14     8    12    1
    15     8    30    1
    16     9    11    1
    17     9    15    1
    18     9    17    1
    19    10    13    1
    20    10    19    1
    21    10    20    1
    22    11    14    1
    23    11    31    1
    24    11    32    1
    25    12    16    1
    26    12    33    1
    27    13    14    1
    28    13    34    1
    29    13    35    1
    30    14    36    1
    31    14    37    1
    32    15    18    2
    33    15    21    1
    34    16    18    1
    35    16    38    1
    36    17    39    1
    37    17    40    1
    38    17    41    1
    39    18    22    1
    40    19    42    1
    41    19    43    1
    42    19    47    1
    43    20    44    1
    44    20    45    1
    45    20    46    1
    46    21    24    1
    47    22    23    2
    48    23    24    1
    49    23    25    1
    50    25    26    1
    51    25    27    1
    52    25    50    1
    53    26    52    1
    54    26    53    1
    55    27    54    1
    56    27    55    1
    57    27    56    1
    58    28    29    1
    59    29    57    1
    60    29    58    1
    61    29    59    1
