@<TRIPOS>MOLECULE
IMPHY008848
 66 72 0 0 0
SMALL
GASTEIGER

@<TRIPOS>ATOM
      1 O          13.9972    2.0897    0.0000 O.3     1  UNL1       -0.2232
      2 O           9.4701   -2.4626    0.0000 O.3     1  UNL1       -0.3311
      3 O          16.4308    2.7955    0.0000 O.3     1  UNL1       -0.3334
      4 O          11.3667    0.5895    0.0000 O.3     1  UNL1       -0.2204
      5 O           7.7381   -2.4560    0.0000 O.3     1  UNL1       -0.3257
      6 O          17.7199    3.9522    0.0000 O.3     1  UNL1       -0.3256
      7 O           9.4778   -0.4626    0.0000 O.3     1  UNL1       -0.2149
      8 O          17.7664    1.3069    0.0000 O.3     1  UNL1       -0.2149
      9 O           7.7497    0.5440    0.0000 O.3     1  UNL1       -0.2174
     10 O          19.7235    1.7193    0.0000 O.3     1  UNL1       -0.2174
     11 O           6.0138   -0.4493    0.0000 O.3     1  UNL1       -0.2176
     12 O          20.3448    3.6203    0.0000 O.3     1  UNL1       -0.2176
     13 O           6.0022   -3.4493    0.0000 O.3     1  UNL1       -0.3259
     14 O          18.3413    5.8533    0.0000 O.3     1  UNL1       -0.2176
     15 O           5.1304   -4.9459    0.0000 O.3     1  UNL1       -0.3284
     16 O           4.2740   -2.4426    0.0000 O.3     1  UNL1       -0.2149
     17 O           2.5381   -3.4359    0.0000 O.3     1  UNL1       -0.2174
     18 O           2.5304   -5.4359    0.0000 O.3     1  UNL1       -0.2177
     19 C          13.9972   -0.9103    0.0000 C.3     1  UNL1        0.0002
     20 C          14.8632   -0.4103    0.0000 C.3     1  UNL1        0.0024
     21 C          13.1312   -0.4103    0.0000 C.3     1  UNL1        0.0050
     22 C          12.2212   -0.9171    0.0000 C.3     1  UNL1        0.0309
     23 C          14.8632    0.5897    0.0000 C.3     1  UNL1        0.0327
     24 C          12.2131   -1.9587    0.0000 C.3     1  UNL1        0.0047
     25 C          14.0133   -1.9518    0.0000 C.3     1  UNL1        0.0000
     26 C          13.1312    0.5897    0.0000 C.3     1  UNL1        0.0330
     27 C          15.8094    0.8944    0.0000 C.3     1  UNL1        0.0275
     28 C          13.9972    1.0897    0.0000 C.3     1  UNL1        0.1520
     29 C          15.8094   -0.7150    0.0000 C.3     1  UNL1        0.0002
     30 C          13.1152   -2.4796    0.0000 C.3     1  UNL1        0.0002
     31 C          11.2777   -2.5085    0.0000 C.3     1  UNL1        0.0252
     32 C          16.3930    0.0897    0.0000 C.3     1  UNL1        0.0024
     33 C          11.2943   -0.3531    0.0000 C.3     1  UNL1        0.0050
     34 C          14.6400   -1.6763    0.0000 C.3     1  UNL1        0.0000
     35 C          15.2053   -1.3500    0.0000 C.3     1  UNL1        0.0001
     36 C          12.2289    0.0828    0.0000 C.3     1  UNL1        0.1819
     37 C          10.3381   -1.9660    0.0000 C.3     1  UNL1        0.1177
     38 C          16.1201    1.8450    0.0000 C.3     1  UNL1        0.0957
     39 C          10.3464   -0.8810    0.0000 C.3     1  UNL1        0.0297
     40 C          11.7810   -3.3726    0.0000 C.3     1  UNL1        0.0024
     41 C          10.7811   -3.3764    0.0000 C.3     1  UNL1        0.0024
     42 C          17.0706    1.5343    0.0000 C.3     1  UNL1        0.0319
     43 C          15.1696    2.1556    0.0000 C.3     1  UNL1        0.0297
     44 C          17.2768    0.5558    0.0000 C.3     1  UNL1        0.0278
     45 C           8.6060   -1.9593    0.0000 C.3     1  UNL1        0.2694
     46 C          17.4093    3.0017    0.0000 C.3     1  UNL1        0.2693
     47 C           8.6099   -0.9593    0.0000 C.3     1  UNL1        0.2406
     48 C          18.0771    2.2574    0.0000 C.3     1  UNL1        0.2406
     49 C          18.2274    0.2451    0.0000 C.2     1  UNL1       -0.0345
     50 C           7.7458   -0.4560    0.0000 C.3     1  UNL1        0.2198
     51 C          19.0556    2.4636    0.0000 C.3     1  UNL1        0.2198
     52 C           6.8740   -1.9526    0.0000 C.3     1  UNL1        0.1802
     53 C          18.6984    4.1584    0.0000 C.3     1  UNL1        0.1835
     54 C           6.8779   -0.9526    0.0000 C.3     1  UNL1        0.2143
     55 C          19.3663    3.4141    0.0000 C.3     1  UNL1        0.2144
     56 C          18.4336   -0.7334    0.0000 C.2     1  UNL1       -0.0478
     57 C           6.0061   -2.4493    0.0000 C.3     1  UNL1        0.1770
     58 C          19.0091    5.1090    0.0000 C.3     1  UNL1        0.2142
     59 C          19.3841   -1.0440    0.0000 C.3     1  UNL1        0.0260
     60 C          17.6893   -1.4012    0.0000 C.3     1  UNL1        0.0260
     61 C           5.1343   -3.9459    0.0000 C.3     1  UNL1        0.2695
     62 C           4.2702   -3.4426    0.0000 C.3     1  UNL1        0.2406
     63 C           3.4022   -3.9393    0.0000 C.3     1  UNL1        0.2197
     64 C           4.2625   -5.4426    0.0000 C.3     1  UNL1        0.1508
     65 C           3.3984   -4.9392    0.0000 C.3     1  UNL1        0.2118
     66 C           4.2586   -6.4426    0.0000 C.3     1  UNL1        0.0350
@<TRIPOS>BOND
     1     1    28    1
     2     2    37    1
     3     4    36    1
     4     5    45    1
     5     5    52    1
     6     6    46    1
     7     6    53    1
     8    13    57    1
     9    14    58    1
    10    15    61    1
    11    15    64    1
    12    19    20    1
    13    19    21    1
    14    19    25    1
    15    19    34    1
    16    20    23    1
    17    20    29    1
    18    20    35    1
    19    21    22    1
    20    21    26    1
    21    22    24    1
    22    22    33    1
    23    22    36    1
    24    23    27    1
    25    23    28    1
    26    24    30    1
    27    24    31    1
    28    25    30    1
    29    26    28    1
    30    27    32    1
    31    27    38    1
    32    29    32    1
    33    31    37    1
    34    31    40    1
    35    31    41    1
    36    33    39    1
    37    37    39    1
    38    38     3    1
    39    38    42    1
    40    38    43    1
    41    42    44    1
    42    44    49    1
    43    45     2    1
    44    45    47    1
    45    46     3    1
    46    46    48    1
    47    47     7    1
    48    47    50    1
    49    48     8    1
    50    48    51    1
    51    49    56    2
    52    50     9    1
    53    50    54    1
    54    51    10    1
    55    51    55    1
    56    52    54    1
    57    52    57    1
    58    53    55    1
    59    53    58    1
    60    54    11    1
    61    55    12    1
    62    56    59    1
    63    56    60    1
    64    61    13    1
    65    61    62    1
    66    62    16    1
    67    62    63    1
    68    63    17    1
    69    63    65    1
    70    64    65    1
    71    64    66    1
    72    65    18    1
