@<TRIPOS>MOLECULE
IMPHY009638
 63 69 0 0 0
SMALL
GASTEIGER

@<TRIPOS>ATOM
      1 O           8.0001   -2.4929    0.0000 O.3     1  UNL1       -0.3600
      2 O           6.3004    1.7444    0.0000 O.3     1  UNL1       -0.4546
      3 O           6.4468    0.7800    0.0000 O.3     1  UNL1       -0.3765
      4 O           8.8216   -0.9861    0.0000 O.3     1  UNL1       -0.3776
      5 O           4.4998   -0.4733    0.0000 O.3     1  UNL1       -0.4523
      6 O           9.7258   -0.4892    0.0000 O.2     1  UNL1       -0.2936
      7 O           4.8717    0.8806    0.0000 O.2     1  UNL1       -0.2452
      8 O           6.2085    3.5553    0.0000 O.2     1  UNL1       -0.2508
      9 O           2.0000   -2.2224    0.0000 O.2     1  UNL1       -0.4706
     10 C           7.0895   -1.9861    0.0000 C.3     1  UNL1        0.1215
     11 C           7.0895    0.0139    0.0000 C.3     1  UNL1        0.1725
     12 C           7.1056   -3.0276    0.0000 C.3     1  UNL1        0.0928
     13 C           7.9556   -0.4861    0.0000 C.3     1  UNL1        0.1635
     14 C           6.2235   -1.4861    0.0000 C.2     1  UNL1       -0.0129
     15 C           7.9556   -1.4861    0.0000 C.3     1  UNL1        0.0218
     16 C           5.3135   -1.9929    0.0000 C.3     1  UNL1        0.0339
     17 C           7.0735    1.0554    0.0000 C.3     1  UNL1        0.1508
     18 C           6.2235   -0.4861    0.0000 C.2     1  UNL1        0.0776
     19 C           7.9715    1.5832    0.0000 C.3     1  UNL1        0.0239
     20 C           6.2076   -3.5553    0.0000 C.3     1  UNL1       -0.0226
     21 C           8.8736    1.0624    0.0000 C.3     1  UNL1        0.0334
     22 C           5.3055   -3.0345    0.0000 C.3     1  UNL1       -0.0376
     23 C           8.8656    0.0208    0.0000 C.2     1  UNL1        0.1740
     24 C           4.4742   -1.4647    0.0000 C.3     1  UNL1        0.1403
     25 C           7.7458    2.5938    0.0000 C.3     1  UNL1        0.0524
     26 C           4.4418   -2.4828    0.0000 C.3     1  UNL1       -0.0520
     27 C           6.5062    0.0551    0.0000 C.3     1  UNL1       -0.0213
     28 C           5.3653    0.0109    0.0000 C.2     1  UNL1        0.3388
     29 C           9.8736    1.0585    0.0000 C.3     1  UNL1       -0.0526
     30 C           9.3769    1.9265    0.0000 C.3     1  UNL1       -0.0526
     31 C           6.7151    2.6932    0.0000 C.2     1  UNL1        0.3081
     32 C           3.5926   -1.9367    0.0000 C.ar    1  UNL1        0.0313
     33 C           3.4564   -2.9274    0.0000 C.ar    1  UNL1       -0.0172
     34 C           2.6926   -1.5010    0.0000 C.ar    1  UNL1        0.0984
     35 C           2.4720   -3.1039    0.0000 C.ar    1  UNL1        0.0921
     36 H           7.4217   -3.5609    0.0000 H       1  UNL1        0.0628
     37 H           8.1676   -2.0687    0.0000 H       1  UNL1        0.0330
     38 H           8.5661   -1.3784    0.0000 H       1  UNL1        0.0330
     39 H           8.4712    1.9502    0.0000 H       1  UNL1        0.0355
     40 H           5.8102   -4.0313    0.0000 H       1  UNL1        0.0291
     41 H           6.6085   -4.0282    0.0000 H       1  UNL1        0.0291
     42 H           4.6955   -2.9237    0.0000 H       1  UNL1        0.0276
     43 H           5.0919   -3.6166    0.0000 H       1  UNL1        0.0276
     44 H           3.9464   -1.1393    0.0000 H       1  UNL1        0.0795
     45 H           8.3618    2.6646    0.0000 H       1  UNL1        0.0382
     46 H           7.7401    3.2137    0.0000 H       1  UNL1        0.0382
     47 H           4.1380   -1.9424    0.0000 H       1  UNL1        0.0239
     48 H           3.9013   -2.7866    0.0000 H       1  UNL1        0.0239
     49 H           4.7455   -3.0233    0.0000 H       1  UNL1        0.0239
     50 H           5.9668    0.3610    0.0000 H       1  UNL1        0.0269
     51 H           6.2003   -0.4842    0.0000 H       1  UNL1        0.0269
     52 H           7.0454   -0.2507    0.0000 H       1  UNL1        0.0269
     53 H           5.8642    0.9921    0.0000 H       1  UNL1        0.2109
     54 H           8.8216   -1.6061    0.0000 H       1  UNL1        0.2109
     55 H           9.8712    0.4385    0.0000 H       1  UNL1        0.0239
     56 H           9.9127    1.6144    0.0000 H       1  UNL1        0.0239
     57 H           9.6890    2.4622    0.0000 H       1  UNL1        0.0239
     58 H           8.8412    2.2386    0.0000 H       1  UNL1        0.0239
     59 H          10.4936    1.0562    0.0000 H       1  UNL1        0.0239
     60 H           9.8760    1.6785    0.0000 H       1  UNL1        0.0239
     61 H           3.9036   -3.3568    0.0000 H       1  UNL1        0.0653
     62 H           2.5831   -0.8907    0.0000 H       1  UNL1        0.1033
     63 H           2.2019   -3.6620    0.0000 H       1  UNL1        0.1029
@<TRIPOS>BOND
     1     1    10    1
     2     1    12    1
     3     2    17    1
     4     2    31    1
     5     3    11    1
     6     3    53    1
     7     4    13    1
     8     4    54    1
     9     5    24    1
    10     5    28    1
    11     6    23    2
    12     7    28    2
    13     8    31    2
    14     9    34   ar
    15     9    35   ar
    16    10    12    1
    17    10    14    1
    18    10    15    1
    19    11    13    1
    20    11    17    1
    21    11    18    1
    22    12    20    1
    23    12    36    1
    24    13    15    1
    25    13    23    1
    26    14    16    1
    27    14    18    2
    28    15    37    1
    29    15    38    1
    30    16    22    1
    31    16    24    1
    32    16    26    1
    33    17    19    1
    34    17    27    1
    35    18    28    1
    36    19    21    1
    37    19    25    1
    38    19    39    1
    39    20    22    1
    40    20    40    1
    41    20    41    1
    42    21    23    1
    43    21    29    1
    44    21    30    1
    45    22    42    1
    46    22    43    1
    47    24    32    1
    48    24    44    1
    49    25    31    1
    50    25    45    1
    51    25    46    1
    52    26    47    1
    53    26    48    1
    54    26    49    1
    55    27    50    1
    56    27    51    1
    57    27    52    1
    58    29    55    1
    59    29    59    1
    60    29    60    1
    61    30    56    1
    62    30    57    1
    63    30    58    1
    64    32    33   ar
    65    32    34   ar
    66    33    35   ar
    67    33    61    1
    68    34    62    1
    69    35    63    1
