@<TRIPOS>MOLECULE
IMPHY012194
 31 30 0 0 0
SMALL
GASTEIGER

@<TRIPOS>ATOM
      1 C           7.1962    0.6830    0.0000 C.3     1  UNL1       -0.0459
      2 C           6.3301    0.1830    0.0000 C.3     1  UNL1       -0.0398
      3 C           2.8660   -0.8170    0.0000 C.3     1  UNL1        0.0235
      4 C           5.4641    0.6830    0.0000 C.3     1  UNL1        0.0094
      5 C           8.0622    0.1830    0.0000 C.3     1  UNL1       -0.0626
      6 C           7.1962    1.6830    0.0000 C.3     1  UNL1       -0.0626
      7 C           2.0000   -1.3170    0.0000 C.3     1  UNL1       -0.0491
      8 C           2.3660    0.0490    0.0000 C.3     1  UNL1       -0.0491
      9 C           3.3660   -1.6830    0.0000 C.3     1  UNL1       -0.0491
     10 C           3.7320   -0.3170    0.0000 C.1     1  UNL1       -0.0963
     11 C           4.5981    0.1830    0.0000 C.1     1  UNL1       -0.1017
     12 H           6.6592    0.9930    0.0000 H       1  UNL1        0.0296
     13 H           5.9316   -0.2919    0.0000 H       1  UNL1        0.0277
     14 H           6.7287   -0.2919    0.0000 H       1  UNL1        0.0277
     15 H           5.8626    1.1580    0.0000 H       1  UNL1        0.0397
     16 H           5.0656    1.1580    0.0000 H       1  UNL1        0.0397
     17 H           7.7522   -0.3539    0.0000 H       1  UNL1        0.0232
     18 H           8.5991   -0.1270    0.0000 H       1  UNL1        0.0232
     19 H           8.3722    0.7199    0.0000 H       1  UNL1        0.0232
     20 H           7.8162    1.6830    0.0000 H       1  UNL1        0.0232
     21 H           7.1962    2.3030    0.0000 H       1  UNL1        0.0232
     22 H           6.5762    1.6830    0.0000 H       1  UNL1        0.0232
     23 H           1.6900   -0.7801    0.0000 H       1  UNL1        0.0244
     24 H           1.4631   -1.6270    0.0000 H       1  UNL1        0.0244
     25 H           2.3100   -1.8539    0.0000 H       1  UNL1        0.0244
     26 H           2.9030    0.3590    0.0000 H       1  UNL1        0.0244
     27 H           2.0560    0.5860    0.0000 H       1  UNL1        0.0244
     28 H           1.8291   -0.2610    0.0000 H       1  UNL1        0.0244
     29 H           2.8291   -1.9930    0.0000 H       1  UNL1        0.0244
     30 H           3.6760   -2.2200    0.0000 H       1  UNL1        0.0244
     31 H           3.9030   -1.3730    0.0000 H       1  UNL1        0.0244
@<TRIPOS>BOND
     1     1     2    1
     2     1     5    1
     3     1     6    1
     4     1    12    1
     5     2     4    1
     6     2    13    1
     7     2    14    1
     8     3     7    1
     9     3     8    1
    10     3     9    1
    11     3    10    1
    12     4    11    1
    13     4    15    1
    14     4    16    1
    15     5    17    1
    16     5    18    1
    17     5    19    1
    18     6    20    1
    19     6    21    1
    20     6    22    1
    21     7    23    1
    22     7    24    1
    23     7    25    1
    24     8    26    1
    25     8    27    1
    26     8    28    1
    27     9    29    1
    28     9    30    1
    29     9    31    1
    30    10    11    3
