@<TRIPOS>MOLECULE
IMPHY004113
 60 62 0 0 0
SMALL
GASTEIGER

@<TRIPOS>ATOM
      1 O           6.2061   -1.2872    0.0000 O.3     1  UNL1       -0.3632
      2 O           8.0018    0.5000    0.0000 O.3     1  UNL1       -0.4541
      3 O           3.6629   -0.0208    0.0000 O.2     1  UNL1       -0.4600
      4 O           4.5806   -1.5346    0.0000 O.3     1  UNL1       -0.4240
      5 O           3.7204    3.0445    0.0000 O.3     1  UNL1       -0.4599
      6 O           8.0018    2.2320    0.0000 O.2     1  UNL1       -0.2508
      7 O           2.8486   -1.5547    0.0000 O.2     1  UNL1       -0.2507
      8 O           4.6037    4.5344    0.0000 O.2     1  UNL1       -0.2512
      9 C           6.4140   -0.3090    0.0000 C.3     1  UNL1        0.1465
     10 C           5.4629   -0.0000    0.0000 C.3     1  UNL1        0.0935
     11 C           7.1571   -0.9782    0.0000 C.3     1  UNL1        0.0823
     12 C           7.0018    0.5000    0.0000 C.3     1  UNL1        0.1535
     13 C           5.4629    1.0000    0.0000 C.2     1  UNL1       -0.0254
     14 C           4.5690   -0.5347    0.0000 C.3     1  UNL1        0.2549
     15 C           6.4140    1.3090    0.0000 C.2     1  UNL1       -0.0368
     16 C           4.5690    1.5346    0.0000 C.2     1  UNL1        0.0277
     17 C           3.6629    1.0208    0.0000 C.2     1  UNL1        0.0956
     18 C           4.5806    2.5346    0.0000 C.3     1  UNL1        0.1206
     19 C           8.5018    1.3660    0.0000 C.2     1  UNL1        0.3080
     20 C           3.7204   -2.0446    0.0000 C.2     1  UNL1        0.3102
     21 C           9.5018    1.3660    0.0000 C.3     1  UNL1        0.0473
     22 C           3.7319   -3.0445    0.0000 C.3     1  UNL1        0.0474
     23 C          10.0018    2.2320    0.0000 C.3     1  UNL1       -0.0367
     24 C           2.8718   -3.5545    0.0000 C.3     1  UNL1       -0.0367
     25 C          11.0018    2.2320    0.0000 C.3     1  UNL1       -0.0622
     26 C           9.5018    3.0980    0.0000 C.3     1  UNL1       -0.0622
     27 C           3.7319    4.0445    0.0000 C.2     1  UNL1        0.3043
     28 C           2.8833   -4.5545    0.0000 C.3     1  UNL1       -0.0622
     29 C           2.0000   -3.0646    0.0000 C.3     1  UNL1       -0.0622
     30 C           2.8718    4.5545    0.0000 C.3     1  UNL1        0.0332
     31 H           5.5583   -0.8447    0.0000 H       1  UNL1        0.0452
     32 H           7.4482   -1.5256    0.0000 H       1  UNL1        0.0590
     33 H           7.6457   -0.5965    0.0000 H       1  UNL1        0.0590
     34 H           7.2832   -0.0525    0.0000 H       1  UNL1        0.0810
     35 H           4.0351   -0.8499    0.0000 H       1  UNL1        0.1213
     36 H           6.6056    1.8986    0.0000 H       1  UNL1        0.0612
     37 H           3.1272    1.3328    0.0000 H       1  UNL1        0.1029
     38 H           5.1898    2.4198    0.0000 H       1  UNL1        0.0750
     39 H           4.7993    3.1147    0.0000 H       1  UNL1        0.0750
     40 H           9.3941    0.7554    0.0000 H       1  UNL1        0.0380
     41 H          10.0844    1.1539    0.0000 H       1  UNL1        0.0380
     42 H           3.9507   -3.6247    0.0000 H       1  UNL1        0.0380
     43 H           4.3412   -2.9298    0.0000 H       1  UNL1        0.0380
     44 H          10.3118    1.6951    0.0000 H       1  UNL1        0.0301
     45 H           2.8646   -2.9346    0.0000 H       1  UNL1        0.0301
     46 H          11.0018    1.6120    0.0000 H       1  UNL1        0.0232
     47 H          11.6218    2.2320    0.0000 H       1  UNL1        0.0232
     48 H          11.0018    2.8520    0.0000 H       1  UNL1        0.0232
     49 H          10.0387    3.4080    0.0000 H       1  UNL1        0.0232
     50 H           9.1918    3.6350    0.0000 H       1  UNL1        0.0232
     51 H           8.9648    2.7880    0.0000 H       1  UNL1        0.0232
     52 H           2.2634   -4.5616    0.0000 H       1  UNL1        0.0232
     53 H           2.8905   -5.1744    0.0000 H       1  UNL1        0.0232
     54 H           3.5033   -4.5473    0.0000 H       1  UNL1        0.0232
     55 H           2.3038   -2.5241    0.0000 H       1  UNL1        0.0232
     56 H           1.4595   -2.7608    0.0000 H       1  UNL1        0.0232
     57 H           1.6962   -3.6050    0.0000 H       1  UNL1        0.0232
     58 H           3.1879    5.0878    0.0000 H       1  UNL1        0.0342
     59 H           2.3384    4.8706    0.0000 H       1  UNL1        0.0342
     60 H           2.5556    4.0211    0.0000 H       1  UNL1        0.0342
@<TRIPOS>BOND
     1     9     1    1
     2     1    11    1
     3    12     2    1
     4     2    19    1
     5     3    14    1
     6     3    17    1
     7    14     4    1
     8     4    20    1
     9     5    18    1
    10     5    27    1
    11     6    19    2
    12     7    20    2
    13     8    27    2
    14     9    10    1
    15     9    11    1
    16     9    12    1
    17    10    13    1
    18    10    14    1
    19    10    31    1
    20    11    32    1
    21    11    33    1
    22    12    15    1
    23    12    34    1
    24    13    15    2
    25    13    16    1
    26    14    35    1
    27    15    36    1
    28    16    17    2
    29    16    18    1
    30    17    37    1
    31    18    38    1
    32    18    39    1
    33    19    21    1
    34    20    22    1
    35    21    23    1
    36    21    40    1
    37    21    41    1
    38    22    24    1
    39    22    42    1
    40    22    43    1
    41    23    25    1
    42    23    26    1
    43    23    44    1
    44    24    28    1
    45    24    29    1
    46    24    45    1
    47    25    46    1
    48    25    47    1
    49    25    48    1
    50    26    49    1
    51    26    50    1
    52    26    51    1
    53    27    30    1
    54    28    52    1
    55    28    53    1
    56    28    54    1
    57    29    55    1
    58    29    56    1
    59    29    57    1
    60    30    58    1
    61    30    59    1
    62    30    60    1
