@<TRIPOS>MOLECULE
IMPHY008882
 96 100 0 0 0
SMALL
GASTEIGER

@<TRIPOS>ATOM
      1 O          10.9848    1.8997    0.0000 O.3     1  UNL1       -0.4608
      2 O           3.3248   -0.3119    0.0000 O.3     1  UNL1       -0.3880
      3 O           3.8493   -4.2864    0.0000 O.3     1  UNL1       -0.4802
      4 O           5.5813   -4.2997    0.0000 O.2     1  UNL1       -0.2504
      5 O          10.1130    3.3964    0.0000 O.2     1  UNL1       -0.2508
      6 C           7.3770   -1.2447    0.0000 C.3     1  UNL1       -0.0194
      7 C           7.3770   -0.2447    0.0000 C.3     1  UNL1       -0.0257
      8 C           8.2709    0.2900    0.0000 C.3     1  UNL1       -0.0249
      9 C           6.5109   -1.7447    0.0000 C.3     1  UNL1       -0.0050
     10 C           9.1770   -0.2238    0.0000 C.3     1  UNL1       -0.0268
     11 C           8.2709   -1.7793    0.0000 C.3     1  UNL1       -0.0463
     12 C           5.6449   -1.2447    0.0000 C.2     1  UNL1       -0.0602
     13 C           9.1770   -1.2655    0.0000 C.3     1  UNL1       -0.0486
     14 C          10.1208    0.3114    0.0000 C.3     1  UNL1        0.0055
     15 C           4.7349   -1.7515    0.0000 C.3     1  UNL1        0.0252
     16 C           6.5109    0.2553    0.0000 C.3     1  UNL1       -0.0306
     17 C           6.5270   -2.7862    0.0000 C.3     1  UNL1       -0.0424
     18 C           4.7269   -2.7931    0.0000 C.3     1  UNL1        0.0767
     19 C           8.2458    1.3747    0.0000 C.3     1  UNL1       -0.0437
     20 C           5.6290   -3.3139    0.0000 C.3     1  UNL1       -0.0358
     21 C           7.7191   -2.1843    0.0000 C.3     1  UNL1       -0.0585
     22 C          10.1208    1.3964    0.0000 C.3     1  UNL1        0.1084
     23 C           5.6449   -0.2447    0.0000 C.2     1  UNL1       -0.0835
     24 C           7.4010    0.7833    0.0000 C.3     1  UNL1       -0.0590
     25 C           3.8081   -1.1874    0.0000 C.3     1  UNL1        0.0733
     26 C           9.1770    1.9316    0.0000 C.3     1  UNL1       -0.0146
     27 C           7.1537   -2.5107    0.0000 C.3     1  UNL1       -0.0553
     28 C           3.7914   -3.3428    0.0000 C.3     1  UNL1       -0.0363
     29 C           2.8602   -1.7154    0.0000 C.3     1  UNL1       -0.0146
     30 C          11.1207    0.3075    0.0000 C.3     1  UNL1       -0.0562
     31 C          10.6174   -0.5566    0.0000 C.3     1  UNL1       -0.0562
     32 C           2.8518   -2.8003    0.0000 C.3     1  UNL1       -0.0468
     33 C           4.7192   -3.7931    0.0000 C.2     1  UNL1        0.3116
     34 C           4.3247   -0.3312    0.0000 C.3     1  UNL1       -0.0352
     35 C           2.0000   -1.2054    0.0000 C.3     1  UNL1       -0.0598
     36 C          10.9810    2.8997    0.0000 C.2     1  UNL1        0.3076
     37 C          11.8451    3.4030    0.0000 C.3     1  UNL1        0.0473
     38 C          11.8412    4.4030    0.0000 C.3     1  UNL1       -0.0367
     39 C          12.7053    4.9064    0.0000 C.3     1  UNL1       -0.0622
     40 C          10.9733    4.8997    0.0000 C.3     1  UNL1       -0.0622
     41 H           8.1163   -0.6640    0.0000 H       1  UNL1        0.0315
     42 H           9.7127   -0.5359    0.0000 H       1  UNL1        0.0312
     43 H           7.8663   -2.2491    0.0000 H       1  UNL1        0.0271
     44 H           8.6645   -2.2583    0.0000 H       1  UNL1        0.0271
     45 H           9.3860   -1.8492    0.0000 H       1  UNL1        0.0268
     46 H           9.7878   -1.1594    0.0000 H       1  UNL1        0.0268
     47 H           4.7513   -0.9017    0.0000 H       1  UNL1        0.0384
     48 H           6.9095    0.7303    0.0000 H       1  UNL1        0.0310
     49 H           6.1124    0.7303    0.0000 H       1  UNL1        0.0310
     50 H           6.7450   -3.3666    0.0000 H       1  UNL1        0.0274
     51 H           7.1361   -2.6707    0.0000 H       1  UNL1        0.0274
     52 H           8.0233    1.9534    0.0000 H       1  UNL1        0.0272
     53 H           7.6376    1.2545    0.0000 H       1  UNL1        0.0272
     54 H           5.2316   -3.7899    0.0000 H       1  UNL1        0.0276
     55 H           6.0299   -3.7868    0.0000 H       1  UNL1        0.0276
     56 H           7.1365   -2.3964    0.0000 H       1  UNL1        0.0235
     57 H           7.9312   -2.7669    0.0000 H       1  UNL1        0.0235
     58 H           8.3017   -1.9722    0.0000 H       1  UNL1        0.0235
     59 H          10.6583    1.0874    0.0000 H       1  UNL1        0.0739
     60 H           5.1080    0.0653    0.0000 H       1  UNL1        0.0572
     61 H           7.7069    1.3226    0.0000 H       1  UNL1        0.0235
     62 H           6.8617    1.0892    0.0000 H       1  UNL1        0.0235
     63 H           7.0952    0.2440    0.0000 H       1  UNL1        0.0235
     64 H           9.5706    2.4106    0.0000 H       1  UNL1        0.0301
     65 H           8.7724    2.4014    0.0000 H       1  UNL1        0.0301
     66 H           6.6788   -2.9092    0.0000 H       1  UNL1        0.0238
     67 H           7.5522   -2.9857    0.0000 H       1  UNL1        0.0238
     68 H           7.6287   -2.1122    0.0000 H       1  UNL1        0.0238
     69 H           3.3942   -3.8188    0.0000 H       1  UNL1        0.0276
     70 H           4.1924   -3.8157    0.0000 H       1  UNL1        0.0276
     71 H           2.3203   -2.0202    0.0000 H       1  UNL1        0.0326
     72 H          11.1184   -0.3125    0.0000 H       1  UNL1        0.0236
     73 H          11.7407    0.3051    0.0000 H       1  UNL1        0.0236
     74 H          11.1231    0.9275    0.0000 H       1  UNL1        0.0236
     75 H          10.0793   -0.8645    0.0000 H       1  UNL1        0.0236
     76 H          10.9253   -1.0947    0.0000 H       1  UNL1        0.0236
     77 H          11.1555   -0.2486    0.0000 H       1  UNL1        0.0236
     78 H           2.2418   -2.6895    0.0000 H       1  UNL1        0.0269
     79 H           2.6383   -3.3824    0.0000 H       1  UNL1        0.0269
     80 H           4.8555   -0.6515    0.0000 H       1  UNL1        0.0257
     81 H           4.6450    0.1997    0.0000 H       1  UNL1        0.0257
     82 H           3.7938   -0.0109    0.0000 H       1  UNL1        0.0257
     83 H           2.3162   -0.6721    0.0000 H       1  UNL1        0.0233
     84 H           1.4667   -0.8892    0.0000 H       1  UNL1        0.0233
     85 H           1.6838   -1.7387    0.0000 H       1  UNL1        0.0233
     86 H           2.7050   -0.3000    0.0000 H       1  UNL1        0.2102
     87 H           3.8445   -4.9064    0.0000 H       1  UNL1        0.2951
     88 H          12.0594    2.8213    0.0000 H       1  UNL1        0.0380
     89 H          12.4552    3.5131    0.0000 H       1  UNL1        0.0380
     90 H          11.3055    4.0910    0.0000 H       1  UNL1        0.0301
     91 H          13.0174    4.3706    0.0000 H       1  UNL1        0.0232
     92 H          13.2411    5.2184    0.0000 H       1  UNL1        0.0232
     93 H          12.3933    5.4421    0.0000 H       1  UNL1        0.0232
     94 H          11.2812    5.4378    0.0000 H       1  UNL1        0.0232
     95 H          10.4352    5.2076    0.0000 H       1  UNL1        0.0232
     96 H          10.6654    4.3616    0.0000 H       1  UNL1        0.0232
@<TRIPOS>BOND
     1    22     1    1
     2     1    36    1
     3    25     2    1
     4     2    86    1
     5     3    33    1
     6     3    87    1
     7     4    33    2
     8     5    36    2
     9     6     7    1
    10     6     9    1
    11     6    11    1
    12     6    21    1
    13     7     8    1
    14     7    16    1
    15     7    41    1
    16     8    10    1
    17     8    19    1
    18     8    24    1
    19     9    12    1
    20     9    17    1
    21     9    27    1
    22    10    13    1
    23    10    14    1
    24    10    42    1
    25    11    13    1
    26    11    43    1
    27    11    44    1
    28    12    15    1
    29    12    23    2
    30    13    45    1
    31    13    46    1
    32    14    22    1
    33    14    30    1
    34    14    31    1
    35    15    18    1
    36    15    25    1
    37    15    47    1
    38    16    23    1
    39    16    48    1
    40    16    49    1
    41    17    20    1
    42    17    50    1
    43    17    51    1
    44    18    20    1
    45    18    28    1
    46    18    33    1
    47    19    26    1
    48    19    52    1
    49    19    53    1
    50    20    54    1
    51    20    55    1
    52    21    56    1
    53    21    57    1
    54    21    58    1
    55    22    26    1
    56    22    59    1
    57    23    60    1
    58    24    61    1
    59    24    62    1
    60    24    63    1
    61    25    29    1
    62    25    34    1
    63    26    64    1
    64    26    65    1
    65    27    66    1
    66    27    67    1
    67    27    68    1
    68    28    32    1
    69    28    69    1
    70    28    70    1
    71    29    32    1
    72    29    35    1
    73    29    71    1
    74    30    72    1
    75    30    73    1
    76    30    74    1
    77    31    75    1
    78    31    76    1
    79    31    77    1
    80    32    78    1
    81    32    79    1
    82    34    80    1
    83    34    81    1
    84    34    82    1
    85    35    83    1
    86    35    84    1
    87    35    85    1
    88    36    37    1
    89    37    38    1
    90    37    88    1
    91    37    89    1
    92    38    39    1
    93    38    40    1
    94    38    90    1
    95    39    91    1
    96    39    92    1
    97    39    93    1
    98    40    94    1
    99    40    95    1
   100    40    96    1
