@<TRIPOS>MOLECULE
IMPHY014998
 45 46 0 0 0
SMALL
GASTEIGER

@<TRIPOS>ATOM
      1 O           6.8671   -0.5000    0.0000 O.3     1  UNL1       -0.3401
      2 O           5.1350   -0.5000    0.0000 O.3     1  UNL1       -0.3405
      3 O           6.0010    2.0000    0.0000 O.3     1  UNL1       -0.3407
      4 O           8.5991    0.5000    0.0000 O.3     1  UNL1       -0.3864
      5 O           6.8671   -2.5000    0.0000 O.3     1  UNL1       -0.3841
      6 O           5.1350   -3.5000    0.0000 O.3     1  UNL1       -0.3864
      7 O           3.4030   -2.5000    0.0000 O.3     1  UNL1       -0.3865
      8 O           8.5991    2.5000    0.0000 O.3     1  UNL1       -0.3841
      9 O           6.8671    3.5000    0.0000 O.3     1  UNL1       -0.3649
     10 O           4.2690    1.0000    0.0000 O.3     1  UNL1       -0.3924
     11 O           2.5369   -1.0000    0.0000 O.3     1  UNL1       -0.3924
     12 C           6.8671    0.5000    0.0000 C.3     1  UNL1        0.1184
     13 C           7.7331    1.0000    0.0000 C.3     1  UNL1        0.1144
     14 C           6.0010   -1.0000    0.0000 C.3     1  UNL1        0.1884
     15 C           6.0010    1.0000    0.0000 C.3     1  UNL1        0.1134
     16 C           6.0010   -2.0000    0.0000 C.3     1  UNL1        0.1341
     17 C           5.1350   -2.5000    0.0000 C.3     1  UNL1        0.1141
     18 C           4.2690   -2.0000    0.0000 C.3     1  UNL1        0.1119
     19 C           7.7331    2.0000    0.0000 C.3     1  UNL1        0.1339
     20 C           4.2690   -1.0000    0.0000 C.3     1  UNL1        0.1130
     21 C           6.8671    2.5000    0.0000 C.3     1  UNL1        0.1854
     22 C           5.1350    0.5000    0.0000 C.3     1  UNL1        0.0730
     23 C           3.4030   -0.5000    0.0000 C.3     1  UNL1        0.0730
     24 H           7.4040    0.1900    0.0000 H       1  UNL1        0.0651
     25 H           7.7331    0.3800    0.0000 H       1  UNL1        0.0648
     26 H           6.0010   -0.3800    0.0000 H       1  UNL1        0.0938
     27 H           5.4641    1.3100    0.0000 H       1  UNL1        0.0647
     28 H           6.0010   -2.6200    0.0000 H       1  UNL1        0.0671
     29 H           4.5981   -2.8100    0.0000 H       1  UNL1        0.0648
     30 H           4.2690   -2.6200    0.0000 H       1  UNL1        0.0647
     31 H           8.2700    1.6900    0.0000 H       1  UNL1        0.0671
     32 H           4.2690   -0.3800    0.0000 H       1  UNL1        0.0647
     33 H           7.4040    2.8100    0.0000 H       1  UNL1        0.0935
     34 H           4.7365    0.0251    0.0000 H       1  UNL1        0.0584
     35 H           5.5335    0.0251    0.0000 H       1  UNL1        0.0584
     36 H           3.8015   -0.0251    0.0000 H       1  UNL1        0.0584
     37 H           3.0044   -0.0251    0.0000 H       1  UNL1        0.0584
     38 H           9.1360    0.8100    0.0000 H       1  UNL1        0.2100
     39 H           6.8671   -3.1200    0.0000 H       1  UNL1        0.2101
     40 H           4.5981   -3.8100    0.0000 H       1  UNL1        0.2100
     41 H           3.4030   -3.1200    0.0000 H       1  UNL1        0.2100
     42 H           8.5991    3.1200    0.0000 H       1  UNL1        0.2101
     43 H           6.3301    3.8100    0.0000 H       1  UNL1        0.2126
     44 H           4.2690    1.6200    0.0000 H       1  UNL1        0.2095
     45 H           2.0000   -0.6900    0.0000 H       1  UNL1        0.2095
@<TRIPOS>BOND
     1    12     1    1
     2    14     1    1
     3     2    14    1
     4     2    20    1
     5     3    15    1
     6     3    21    1
     7    13     4    1
     8     4    38    1
     9    16     5    1
    10     5    39    1
    11    17     6    1
    12     6    40    1
    13    18     7    1
    14     7    41    1
    15    19     8    1
    16     8    42    1
    17    21     9    1
    18     9    43    1
    19    10    22    1
    20    10    44    1
    21    11    23    1
    22    11    45    1
    23    12    13    1
    24    12    15    1
    25    12    24    1
    26    13    19    1
    27    13    25    1
    28    14    16    1
    29    14    26    1
    30    15    22    1
    31    15    27    1
    32    16    17    1
    33    16    28    1
    34    17    18    1
    35    17    29    1
    36    18    20    1
    37    18    30    1
    38    19    21    1
    39    19    31    1
    40    20    23    1
    41    20    32    1
    42    21    33    1
    43    22    34    1
    44    22    35    1
    45    23    36    1
    46    23    37    1
