@<TRIPOS>MOLECULE
IMPHY000985
 40 44 0 0 0
SMALL
GASTEIGER

@<TRIPOS>ATOM
      1 O           2.8652   -2.7698    0.0000 O.3     1  UNL1       -0.3521
      2 O           3.5617   -0.2962    0.0000 O.3     1  UNL1       -0.4548
      3 O           5.9438   -2.5120    0.0000 O.3     1  UNL1       -0.3869
      4 O           7.9936   -0.6300    0.0000 O.3     1  UNL1       -0.4569
      5 O           2.0000   -1.1002    0.0000 O.2     1  UNL1       -0.2474
      6 O           4.8580    2.5935    0.0000 O.3     1  UNL1       -0.3887
      7 O           8.2348   -2.4619    0.0000 O.2     1  UNL1       -0.2504
      8 C           4.2858   -1.3936    0.0000 C.3     1  UNL1        0.0798
      9 C           3.5040   -2.0076    0.0000 C.3     1  UNL1        0.2032
     10 C           5.1148   -1.9528    0.0000 C.3     1  UNL1        0.0940
     11 C           3.8448   -2.9414    0.0000 C.3     1  UNL1        0.1030
     12 C           4.5614   -0.4323    0.0000 C.3     1  UNL1        0.1514
     13 C           4.8383   -2.9076    0.0000 C.3     1  UNL1        0.0073
     14 C           6.3358   -1.0871    0.0000 C.3     1  UNL1        0.0948
     15 C           6.5947   -0.1212    0.0000 C.3     1  UNL1        0.1467
     16 C           5.8580    0.8614    0.0000 C.3     1  UNL1        0.0435
     17 C           2.9994   -1.1339    0.0000 C.2     1  UNL1        0.3432
     18 C           4.0101   -2.3548    0.0000 C.3     1  UNL1       -0.0501
     19 C           7.7348   -1.5959    0.0000 C.2     1  UNL1        0.3139
     20 C           5.3580    1.7275    0.0000 C.3     1  UNL1        0.0677
     21 C           6.2241    2.2275    0.0000 C.3     1  UNL1       -0.0359
     22 C           4.4920    1.2275    0.0000 C.3     1  UNL1       -0.0359
     23 H           3.7856   -3.7894    0.0000 H       1  UNL1        0.0632
     24 H           4.7957    0.3848    0.0000 H       1  UNL1        0.0779
     25 H           4.7942   -3.5260    0.0000 H       1  UNL1        0.0319
     26 H           5.4487   -3.0165    0.0000 H       1  UNL1        0.0319
     27 H           6.1158   -1.9081    0.0000 H       1  UNL1        0.0447
     28 H           6.8146    0.6999    0.0000 H       1  UNL1        0.0776
     29 H           6.5674    1.3297    0.0000 H       1  UNL1        0.0374
     30 H           3.4142   -2.1839    0.0000 H       1  UNL1        0.0238
     31 H           3.8392   -2.9508    0.0000 H       1  UNL1        0.0238
     32 H           4.6061   -2.5257    0.0000 H       1  UNL1        0.0238
     33 H           5.9006   -3.1304    0.0000 H       1  UNL1        0.2102
     34 H           6.5341    1.6905    0.0000 H       1  UNL1        0.0257
     35 H           6.7610    2.5375    0.0000 H       1  UNL1        0.0257
     36 H           5.9141    2.7644    0.0000 H       1  UNL1        0.0257
     37 H           4.1820    1.7644    0.0000 H       1  UNL1        0.0257
     38 H           3.9551    0.9175    0.0000 H       1  UNL1        0.0257
     39 H           4.8020    0.6905    0.0000 H       1  UNL1        0.0257
     40 H           5.1680    3.1304    0.0000 H       1  UNL1        0.2101
@<TRIPOS>BOND
     1     9     1    1
     2     1    11    1
     3     2    12    1
     4     2    17    1
     5    10     3    1
     6     3    33    1
     7     4    15    1
     8     4    19    1
     9     5    17    2
    10     6    20    1
    11     6    40    1
    12     7    19    2
    13     8     9    1
    14     8    10    1
    15     8    12    1
    16     8    18    1
    17     9    11    1
    18     9    17    1
    19    10    13    1
    20    10    14    1
    21    11    13    1
    22    11    23    1
    23    12    15    1
    24    12    24    1
    25    13    25    1
    26    13    26    1
    27    14    16    1
    28    14    19    1
    29    14    27    1
    30    15    16    1
    31    15    28    1
    32    16    20    1
    33    16    29    1
    34    18    30    1
    35    18    31    1
    36    18    32    1
    37    20    21    1
    38    20    22    1
    39    21    34    1
    40    21    35    1
    41    21    36    1
    42    22    37    1
    43    22    38    1
    44    22    39    1
