@<TRIPOS>MOLECULE
IMPHY012212
 18 18 0 0 0
SMALL
GASTEIGER

@<TRIPOS>ATOM
      1 O           3.7320    2.0000    0.0000 O.2     1  UNL1       -0.2873
      2 O           3.7320   -2.0000    0.0000 O.2     1  UNL1       -0.2879
      3 C           2.8660    0.5000    0.0000 C.2     1  UNL1        0.0001
      4 C           4.5981    0.5000    0.0000 C.2     1  UNL1        0.0001
      5 C           3.7320    1.0000    0.0000 C.2     1  UNL1        0.1850
      6 C           2.8660   -0.5000    0.0000 C.2     1  UNL1       -0.0084
      7 C           4.5981   -0.5000    0.0000 C.2     1  UNL1       -0.0084
      8 C           3.7320   -1.0000    0.0000 C.2     1  UNL1        0.1797
      9 C           2.0000    1.0000    0.0000 C.3     1  UNL1       -0.0360
     10 C           5.4641    1.0000    0.0000 C.3     1  UNL1       -0.0360
     11 H           2.3291   -0.8100    0.0000 H       1  UNL1        0.0659
     12 H           5.1350   -0.8100    0.0000 H       1  UNL1        0.0659
     13 H           2.3100    1.5369    0.0000 H       1  UNL1        0.0279
     14 H           1.4631    1.3100    0.0000 H       1  UNL1        0.0279
     15 H           1.6900    0.4631    0.0000 H       1  UNL1        0.0279
     16 H           5.7741    0.4631    0.0000 H       1  UNL1        0.0279
     17 H           6.0010    1.3100    0.0000 H       1  UNL1        0.0279
     18 H           5.1541    1.5369    0.0000 H       1  UNL1        0.0279
@<TRIPOS>BOND
     1     1     5    2
     2     2     8    2
     3     3     5    1
     4     3     6    2
     5     3     9    1
     6     4     5    1
     7     4     7    2
     8     4    10    1
     9     6     8    1
    10     6    11    1
    11     7     8    1
    12     7    12    1
    13     9    13    1
    14     9    14    1
    15     9    15    1
    16    10    16    1
    17    10    17    1
    18    10    18    1
