@<TRIPOS>MOLECULE
IMPHY001074
 56 58 0 0 0
SMALL
GASTEIGER

@<TRIPOS>ATOM
      1 O           5.5301   -1.3533    0.0000 O.2     1  UNL1       -0.4542
      2 O           7.2785    1.6813    0.0000 O.3     1  UNL1       -0.5055
      3 O           9.0602   -1.3775    0.0000 O.3     1  UNL1       -0.5062
      4 O           5.5301    1.6467    0.0000 O.2     1  UNL1       -0.2863
      5 O           2.0000    0.6708    0.0000 O.3     1  UNL1       -0.4914
      6 O           2.0000   -1.3775    0.0000 O.3     1  UNL1       -0.5032
      7 C           8.1962    0.1675    0.0000 C.ar    1  UNL1        0.0400
      8 C           6.3961    0.1467    0.0000 C.ar    1  UNL1        0.1063
      9 C           9.0602    0.6708    0.0000 C.3     1  UNL1       -0.0023
     10 C           7.2901    0.6813    0.0000 C.ar    1  UNL1        0.1381
     11 C           6.3961   -0.8533    0.0000 C.ar    1  UNL1        0.1463
     12 C          10.7923    0.6775    0.0000 C.2     1  UNL1       -0.0759
     13 C           8.1962   -0.8741    0.0000 C.ar    1  UNL1        0.1273
     14 C           4.6641    0.1467    0.0000 C.ar    1  UNL1        0.0684
     15 C          11.6602    0.1808    0.0000 C.3     1  UNL1       -0.0286
     16 C           5.5301    0.6467    0.0000 C.ar    1  UNL1        0.2038
     17 C           9.9282    0.1742    0.0000 C.2     1  UNL1       -0.0805
     18 C           7.2901   -1.3880    0.0000 C.ar    1  UNL1        0.0234
     19 C           4.6641   -0.8533    0.0000 C.ar    1  UNL1        0.1430
     20 C          12.5243    0.6842    0.0000 C.3     1  UNL1       -0.0308
     21 C           3.7702    0.6813    0.0000 C.ar    1  UNL1       -0.0019
     22 C          10.7884    1.6775    0.0000 C.3     1  UNL1       -0.0438
     23 C           3.7702   -1.3880    0.0000 C.ar    1  UNL1        0.0265
     24 C           2.8641    0.1675    0.0000 C.ar    1  UNL1        0.1622
     25 C          13.3923    0.1875    0.0000 C.2     1  UNL1       -0.0850
     26 C           2.8641   -0.8741    0.0000 C.ar    1  UNL1        0.1620
     27 C          14.2564    0.6909    0.0000 C.2     1  UNL1       -0.0796
     28 C          15.1243    0.1942    0.0000 C.3     1  UNL1       -0.0440
     29 C          14.2525    1.6908    0.0000 C.3     1  UNL1       -0.0440
     30 C           2.0038    1.6708    0.0000 C.3     1  UNL1        0.0790
     31 H           9.4570    1.1473    0.0000 H       1  UNL1        0.0358
     32 H           8.6599    1.1442    0.0000 H       1  UNL1        0.0358
     33 H          11.2635   -0.2956    0.0000 H       1  UNL1        0.0313
     34 H          12.0606   -0.2926    0.0000 H       1  UNL1        0.0313
     35 H           9.9306   -0.4458    0.0000 H       1  UNL1        0.0575
     36 H           7.2829   -2.0079    0.0000 H       1  UNL1        0.0691
     37 H          12.9210    1.1607    0.0000 H       1  UNL1        0.0310
     38 H          12.1240    1.1576    0.0000 H       1  UNL1        0.0310
     39 H           3.7773    1.3013    0.0000 H       1  UNL1        0.0663
     40 H          11.4084    1.6799    0.0000 H       1  UNL1        0.0274
     41 H          10.7860    2.2975    0.0000 H       1  UNL1        0.0274
     42 H          10.1684    1.6751    0.0000 H       1  UNL1        0.0274
     43 H           3.7773   -2.0079    0.0000 H       1  UNL1        0.0692
     44 H          13.3947   -0.4325    0.0000 H       1  UNL1        0.0572
     45 H           7.8118    1.9975    0.0000 H       1  UNL1        0.2922
     46 H           9.0579   -1.9975    0.0000 H       1  UNL1        0.2921
     47 H          14.8164   -0.3439    0.0000 H       1  UNL1        0.0274
     48 H          14.8725    1.6932    0.0000 H       1  UNL1        0.0274
     49 H          14.2501    2.3108    0.0000 H       1  UNL1        0.0274
     50 H          13.6325    1.6885    0.0000 H       1  UNL1        0.0274
     51 H          15.6624   -0.1137    0.0000 H       1  UNL1        0.0274
     52 H          15.4322    0.7323    0.0000 H       1  UNL1        0.0274
     53 H           2.0024   -1.9975    0.0000 H       1  UNL1        0.2923
     54 H           2.6238    1.6684    0.0000 H       1  UNL1        0.0660
     55 H           2.0062    2.2908    0.0000 H       1  UNL1        0.0660
     56 H           1.3839    1.6732    0.0000 H       1  UNL1        0.0660
@<TRIPOS>BOND
     1     1    11   ar
     2     1    19   ar
     3     2    10    1
     4     2    45    1
     5     3    13    1
     6     3    46    1
     7     4    16    2
     8     5    24    1
     9     5    30    1
    10     6    26    1
    11     6    53    1
    12     7     9    1
    13     7    10   ar
    14     7    13   ar
    15     8    10   ar
    16     8    11   ar
    17     8    16   ar
    18     9    17    1
    19     9    31    1
    20     9    32    1
    21    11    18   ar
    22    12    15    1
    23    12    17    2
    24    12    22    1
    25    13    18   ar
    26    14    16   ar
    27    14    19   ar
    28    14    21   ar
    29    15    20    1
    30    15    33    1
    31    15    34    1
    32    17    35    1
    33    18    36    1
    34    19    23   ar
    35    20    25    1
    36    20    37    1
    37    20    38    1
    38    21    24   ar
    39    21    39    1
    40    22    40    1
    41    22    41    1
    42    22    42    1
    43    23    26   ar
    44    23    43    1
    45    24    26   ar
    46    25    27    2
    47    25    44    1
    48    27    28    1
    49    27    29    1
    50    28    47    1
    51    28    51    1
    52    28    52    1
    53    29    48    1
    54    29    49    1
    55    29    50    1
    56    30    54    1
    57    30    55    1
    58    30    56    1
