@<TRIPOS>MOLECULE
IMPHY006941
 16 16 0 0 0
SMALL
GASTEIGER

@<TRIPOS>ATOM
      1 N           4.5981    2.0000    0.0000 N.1     1  UNL1       -0.1962
      2 C           2.8660    0.0000    0.0000 C.ar    1  UNL1       -0.0336
      3 C           2.8660    1.0000    0.0000 C.3     1  UNL1        0.0598
      4 C           2.0000   -0.5000    0.0000 C.ar    1  UNL1       -0.0576
      5 C           3.7320   -0.5000    0.0000 C.ar    1  UNL1       -0.0576
      6 C           2.0000   -1.5000    0.0000 C.ar    1  UNL1       -0.0615
      7 C           3.7320   -1.5000    0.0000 C.ar    1  UNL1       -0.0615
      8 C           2.8660   -2.0000    0.0000 C.ar    1  UNL1       -0.0617
      9 C           3.7320    1.5000    0.0000 C.1     1  UNL1        0.0672
     10 H           2.6540    1.5826    0.0000 H       1  UNL1        0.0467
     11 H           2.2554    0.8923    0.0000 H       1  UNL1        0.0467
     12 H           1.4631   -0.1900    0.0000 H       1  UNL1        0.0621
     13 H           4.2690   -0.1900    0.0000 H       1  UNL1        0.0621
     14 H           1.4631   -1.8100    0.0000 H       1  UNL1        0.0618
     15 H           4.2690   -1.8100    0.0000 H       1  UNL1        0.0618
     16 H           2.8660   -2.6200    0.0000 H       1  UNL1        0.0618
@<TRIPOS>BOND
     1     1     9    3
     2     2     3    1
     3     2     4   ar
     4     2     5   ar
     5     3     9    1
     6     3    10    1
     7     3    11    1
     8     4     6   ar
     9     4    12    1
    10     5     7   ar
    11     5    13    1
    12     6     8   ar
    13     6    14    1
    14     7     8   ar
    15     7    15    1
    16     8    16    1
