@<TRIPOS>MOLECULE
IMPHY013173
 44 45 0 0 0
SMALL
GASTEIGER

@<TRIPOS>ATOM
      1 O           7.2583   -1.9417    0.0000 O.2     1  UNL1       -0.4218
      2 O           8.9904   -1.9417    0.0000 O.2     1  UNL1       -0.2449
      3 O           3.7282   -1.9658    0.0000 O.3     1  UNL1       -0.5064
      4 C           8.9904    0.0583    0.0000 C.3     1  UNL1        0.0146
      5 C           8.1243   -0.4417    0.0000 C.ar    1  UNL1        0.0470
      6 C           8.4904    0.9244    0.0000 C.3     1  UNL1       -0.0521
      7 C           9.4904   -0.8077    0.0000 C.3     1  UNL1       -0.0521
      8 C           6.3923   -0.4417    0.0000 C.ar    1  UNL1        0.0184
      9 C           7.2583    0.0583    0.0000 C.ar    1  UNL1       -0.0403
     10 C           9.8564    0.5583    0.0000 C.2     1  UNL1       -0.0809
     11 C           6.3923   -1.4417    0.0000 C.ar    1  UNL1        0.1425
     12 C           8.1243   -1.4417    0.0000 C.ar    1  UNL1        0.3413
     13 C           4.5923   -0.4208    0.0000 C.ar    1  UNL1       -0.0014
     14 C           5.4983    0.0930    0.0000 C.ar    1  UNL1       -0.0441
     15 C           5.4983   -1.9763    0.0000 C.ar    1  UNL1        0.0231
     16 C           3.7282    0.0825    0.0000 C.3     1  UNL1       -0.0058
     17 C           4.5923   -1.4625    0.0000 C.ar    1  UNL1        0.1238
     18 C           9.8564    1.5583    0.0000 C.2     1  UNL1       -0.1018
     19 C           3.7320    1.0825    0.0000 C.2     1  UNL1       -0.0809
     20 C           2.8680    1.5858    0.0000 C.2     1  UNL1       -0.0793
     21 C           2.8718    2.5858    0.0000 C.3     1  UNL1       -0.0440
     22 C           2.0000    1.0892    0.0000 C.3     1  UNL1       -0.0440
     23 H           9.0273    1.2344    0.0000 H       1  UNL1        0.0241
     24 H           8.1804    1.4613    0.0000 H       1  UNL1        0.0241
     25 H           7.9534    0.6144    0.0000 H       1  UNL1        0.0241
     26 H           8.9534   -1.1177    0.0000 H       1  UNL1        0.0241
     27 H           9.8004   -1.3446    0.0000 H       1  UNL1        0.0241
     28 H          10.0273   -0.4977    0.0000 H       1  UNL1        0.0241
     29 H           7.2583    0.6783    0.0000 H       1  UNL1        0.0630
     30 H          10.3933    0.2483    0.0000 H       1  UNL1        0.0575
     31 H           5.5055    0.7130    0.0000 H       1  UNL1        0.0629
     32 H           5.5055   -2.5963    0.0000 H       1  UNL1        0.0691
     33 H           3.1180    0.1925    0.0000 H       1  UNL1        0.0357
     34 H           3.5139   -0.4993    0.0000 H       1  UNL1        0.0357
     35 H           4.2702    1.3904    0.0000 H       1  UNL1        0.0575
     36 H          10.3933    1.8683    0.0000 H       1  UNL1        0.0532
     37 H           9.3194    1.8683    0.0000 H       1  UNL1        0.0532
     38 H           3.7306   -2.5858    0.0000 H       1  UNL1        0.2921
     39 H           3.4918    2.5834    0.0000 H       1  UNL1        0.0274
     40 H           2.8742    3.2058    0.0000 H       1  UNL1        0.0274
     41 H           2.2518    2.5882    0.0000 H       1  UNL1        0.0274
     42 H           1.6921    1.6273    0.0000 H       1  UNL1        0.0274
     43 H           1.4619    0.7812    0.0000 H       1  UNL1        0.0274
     44 H           2.3079    0.5510    0.0000 H       1  UNL1        0.0274
@<TRIPOS>BOND
     1     1    11   ar
     2     1    12   ar
     3     2    12    2
     4     3    17    1
     5     3    38    1
     6     4     5    1
     7     4     6    1
     8     4     7    1
     9     4    10    1
    10     5     9   ar
    11     5    12   ar
    12     6    23    1
    13     6    24    1
    14     6    25    1
    15     7    26    1
    16     7    27    1
    17     7    28    1
    18     8     9   ar
    19     8    11   ar
    20     8    14   ar
    21     9    29    1
    22    10    18    2
    23    10    30    1
    24    11    15   ar
    25    13    14   ar
    26    13    16    1
    27    13    17   ar
    28    14    31    1
    29    15    17   ar
    30    15    32    1
    31    16    19    1
    32    16    33    1
    33    16    34    1
    34    18    36    1
    35    18    37    1
    36    19    20    2
    37    19    35    1
    38    20    21    1
    39    20    22    1
    40    21    39    1
    41    21    40    1
    42    21    41    1
    43    22    42    1
    44    22    43    1
    45    22    44    1
