@<TRIPOS>MOLECULE
IMPHY006429
 19 19 0 0 0
SMALL
GASTEIGER

@<TRIPOS>ATOM
      1 O           4.2690    2.0950    0.0000 O.3     1  UNL1       -0.5033
      2 O           2.5369    1.0950    0.0000 O.3     1  UNL1       -0.5033
      3 O           6.8671   -2.4050    0.0000 O.co2   1  UNL1       -0.5495
      4 O           5.1350   -2.4050    0.0000 O.co2   1  UNL1       -0.5495
      5 C           5.1350   -0.4050    0.0000 C.ar    1  UNL1       -0.0382
      6 C           6.0010   -0.9050    0.0000 C.3     1  UNL1        0.0121
      7 C           5.1350    0.5950    0.0000 C.ar    1  UNL1       -0.0130
      8 C           4.2690   -0.9050    0.0000 C.ar    1  UNL1       -0.0545
      9 C           4.2690    1.0950    0.0000 C.ar    1  UNL1        0.1585
     10 C           3.4030    0.5950    0.0000 C.ar    1  UNL1        0.1582
     11 C           3.4030   -0.4050    0.0000 C.ar    1  UNL1       -0.0163
     12 C           6.0010   -1.9050    0.0000 C.2     1  UNL1        0.0460
     13 H           6.6116   -1.0127    0.0000 H       1  UNL1        0.0373
     14 H           6.2131   -0.3224    0.0000 H       1  UNL1        0.0373
     15 H           5.6720    0.9050    0.0000 H       1  UNL1        0.0658
     16 H           4.2690   -1.5250    0.0000 H       1  UNL1        0.0622
     17 H           2.8660   -0.7150    0.0000 H       1  UNL1        0.0655
     18 H           4.8059    2.4050    0.0000 H       1  UNL1        0.2923
     19 H           2.0000    0.7850    0.0000 H       1  UNL1        0.2923
@<TRIPOS>UNITY_ATOM_ATTR
3 1
charge -1
@<TRIPOS>BOND
     1     1     9    1
     2     1    18    1
     3     2    10    1
     4     2    19    1
     5     3    12   ar
     6     4    12   ar
     7     5     6    1
     8     5     7   ar
     9     5     8   ar
    10     6    12    1
    11     6    13    1
    12     6    14    1
    13     7     9   ar
    14     7    15    1
    15     8    11   ar
    16     8    16    1
    17     9    10   ar
    18    10    11   ar
    19    11    17    1
