@<TRIPOS>MOLECULE
IMPHY004225
 55 54 0 0 0
SMALL
GASTEIGER

@<TRIPOS>ATOM
      1 O           2.8660   -2.2500    0.0000 O.3     1  UNL1       -0.4679
      2 O           3.7320   -3.7500    0.0000 O.2     1  UNL1       -0.2509
      3 C           7.1962   -2.7500    0.0000 C.3     1  UNL1       -0.0530
      4 C           8.0622   -2.2500    0.0000 C.3     1  UNL1       -0.0528
      5 C           6.3301   -2.2500    0.0000 C.3     1  UNL1       -0.0526
      6 C           8.9282   -2.7500    0.0000 C.3     1  UNL1       -0.0496
      7 C           5.4641   -2.7500    0.0000 C.3     1  UNL1       -0.0430
      8 C           9.7942   -2.2500    0.0000 C.3     1  UNL1       -0.0348
      9 C           4.5981   -2.2500    0.0000 C.3     1  UNL1        0.0449
     10 C          11.5263    1.7500    0.0000 C.3     1  UNL1       -0.0496
     11 C          10.6603    2.2500    0.0000 C.3     1  UNL1       -0.0530
     12 C          10.6603   -2.7500    0.0000 C.2     1  UNL1       -0.0876
     13 C          11.5263    0.7500    0.0000 C.3     1  UNL1       -0.0348
     14 C          10.6603    3.2500    0.0000 C.3     1  UNL1       -0.0559
     15 C          11.5263   -2.2500    0.0000 C.2     1  UNL1       -0.0842
     16 C          11.5263   -1.2500    0.0000 C.3     1  UNL1       -0.0165
     17 C           3.7320   -2.7500    0.0000 C.2     1  UNL1        0.3068
     18 C          12.3923    0.2500    0.0000 C.2     1  UNL1       -0.0876
     19 C          12.3923   -0.7500    0.0000 C.2     1  UNL1       -0.0842
     20 C           9.7942    3.7500    0.0000 C.3     1  UNL1       -0.0653
     21 C           2.0000   -2.7500    0.0000 C.3     1  UNL1        0.0817
     22 H           6.7976   -3.2250    0.0000 H       1  UNL1        0.0265
     23 H           7.5947   -3.2250    0.0000 H       1  UNL1        0.0265
     24 H           8.4607   -1.7750    0.0000 H       1  UNL1        0.0265
     25 H           7.6636   -1.7750    0.0000 H       1  UNL1        0.0265
     26 H           6.7287   -1.7750    0.0000 H       1  UNL1        0.0265
     27 H           5.9316   -1.7750    0.0000 H       1  UNL1        0.0265
     28 H           8.5297   -3.2250    0.0000 H       1  UNL1        0.0268
     29 H           9.3267   -3.2250    0.0000 H       1  UNL1        0.0268
     30 H           5.0656   -3.2250    0.0000 H       1  UNL1        0.0270
     31 H           5.8626   -3.2250    0.0000 H       1  UNL1        0.0270
     32 H          10.1928   -1.7750    0.0000 H       1  UNL1        0.0307
     33 H           9.3957   -1.7750    0.0000 H       1  UNL1        0.0307
     34 H           4.9966   -1.7750    0.0000 H       1  UNL1        0.0377
     35 H           4.1996   -1.7750    0.0000 H       1  UNL1        0.0377
     36 H          12.1369    1.6423    0.0000 H       1  UNL1        0.0268
     37 H          11.7383    2.3326    0.0000 H       1  UNL1        0.0268
     38 H          10.0497    2.3577    0.0000 H       1  UNL1        0.0265
     39 H          10.4482    1.6674    0.0000 H       1  UNL1        0.0265
     40 H          10.6603   -3.3700    0.0000 H       1  UNL1        0.0569
     41 H          10.9157    0.8577    0.0000 H       1  UNL1        0.0307
     42 H          11.3142    0.1674    0.0000 H       1  UNL1        0.0307
     43 H          11.2708    3.1423    0.0000 H       1  UNL1        0.0263
     44 H          10.8723    3.8326    0.0000 H       1  UNL1        0.0263
     45 H          12.0632   -2.5600    0.0000 H       1  UNL1        0.0572
     46 H          11.3142   -0.6674    0.0000 H       1  UNL1        0.0350
     47 H          10.9157   -1.3577    0.0000 H       1  UNL1        0.0350
     48 H          12.9292    0.5600    0.0000 H       1  UNL1        0.0569
     49 H          12.9292   -1.0600    0.0000 H       1  UNL1        0.0572
     50 H          10.1042    4.2869    0.0000 H       1  UNL1        0.0230
     51 H           9.2573    4.0600    0.0000 H       1  UNL1        0.0230
     52 H           9.4842    3.2131    0.0000 H       1  UNL1        0.0230
     53 H           1.6900   -2.2131    0.0000 H       1  UNL1        0.0661
     54 H           1.4631   -3.0600    0.0000 H       1  UNL1        0.0661
     55 H           2.3100   -3.2869    0.0000 H       1  UNL1        0.0661
@<TRIPOS>BOND
     1     1    17    1
     2     1    21    1
     3     2    17    2
     4     3     4    1
     5     3     5    1
     6     3    22    1
     7     3    23    1
     8     4     6    1
     9     4    24    1
    10     4    25    1
    11     5     7    1
    12     5    26    1
    13     5    27    1
    14     6     8    1
    15     6    28    1
    16     6    29    1
    17     7     9    1
    18     7    30    1
    19     7    31    1
    20     8    12    1
    21     8    32    1
    22     8    33    1
    23     9    17    1
    24     9    34    1
    25     9    35    1
    26    10    11    1
    27    10    13    1
    28    10    36    1
    29    10    37    1
    30    11    14    1
    31    11    38    1
    32    11    39    1
    33    12    15    2
    34    12    40    1
    35    13    18    1
    36    13    41    1
    37    13    42    1
    38    14    20    1
    39    14    43    1
    40    14    44    1
    41    15    16    1
    42    15    45    1
    43    16    19    1
    44    16    46    1
    45    16    47    1
    46    18    19    2
    47    18    48    1
    48    19    49    1
    49    20    50    1
    50    20    51    1
    51    20    52    1
    52    21    53    1
    53    21    54    1
    54    21    55    1
