@<TRIPOS>MOLECULE
IMPHY004126
 77 80 0 0 0
SMALL
GASTEIGER

@<TRIPOS>ATOM
      1 O           5.6489   -4.1911    0.0000 O.2     1  UNL1       -0.2924
      2 O           2.0000   -3.1742    0.0000 O.2     1  UNL1       -0.2927
      3 C           7.3931   -0.1219    0.0000 C.3     1  UNL1       -0.0259
      4 C           7.3931   -1.1219    0.0000 C.3     1  UNL1       -0.0319
      5 C           6.5271   -1.6219    0.0000 C.3     1  UNL1       -0.0271
      6 C           8.3393    0.1828    0.0000 C.3     1  UNL1       -0.0328
      7 C           5.6610   -1.1219    0.0000 C.3     1  UNL1       -0.0280
      8 C           6.5271    0.3781    0.0000 C.3     1  UNL1       -0.0468
      9 C           8.3393   -1.4266    0.0000 C.3     1  UNL1       -0.0492
     10 C           5.6610   -0.1219    0.0000 C.3     1  UNL1       -0.0486
     11 C           8.9229   -0.6219    0.0000 C.3     1  UNL1       -0.0492
     12 C           4.7510   -1.6287    0.0000 C.3     1  UNL1       -0.0002
     13 C           8.6500    1.1334    0.0000 C.3     1  UNL1       -0.0405
     14 C           6.5431   -2.6634    0.0000 C.3     1  UNL1        0.0135
     15 C           7.3931    0.8781    0.0000 C.3     1  UNL1       -0.0590
     16 C           4.7430   -2.6703    0.0000 C.2     1  UNL1        0.0045
     17 C           3.8242   -1.0647    0.0000 C.3     1  UNL1       -0.0362
     18 C           5.6451   -3.1912    0.0000 C.2     1  UNL1        0.1601
     19 C           4.7587   -0.6288    0.0000 C.3     1  UNL1       -0.0552
     20 C           9.6285    1.3396    0.0000 C.3     1  UNL1       -0.0499
     21 C           7.9821    1.8777    0.0000 C.3     1  UNL1       -0.0621
     22 C           2.8763   -1.5926    0.0000 C.3     1  UNL1        0.0107
     23 C           3.8076   -3.2201    0.0000 C.2     1  UNL1       -0.0122
     24 C           9.9391    2.2901    0.0000 C.3     1  UNL1       -0.0497
     25 C           2.8680   -2.6776    0.0000 C.2     1  UNL1        0.1565
     26 C          10.9176    2.4963    0.0000 C.3     1  UNL1       -0.0389
     27 C          11.2283    3.4468    0.0000 C.3     1  UNL1       -0.0439
     28 C          11.5855    1.7520    0.0000 C.3     1  UNL1       -0.0528
     29 C          12.2068    3.6531    0.0000 C.3     1  UNL1       -0.0624
     30 C          10.5605    4.1911    0.0000 C.3     1  UNL1       -0.0624
     31 C          12.5640    1.9582    0.0000 C.3     1  UNL1       -0.0650
     32 H           7.4830   -1.9671    0.0000 H       1  UNL1        0.0309
     33 H           7.2664   -2.0412    0.0000 H       1  UNL1        0.0311
     34 H           9.1790    0.3147    0.0000 H       1  UNL1        0.0309
     35 H           6.3972   -0.6969    0.0000 H       1  UNL1        0.0312
     36 H           6.9256    0.8531    0.0000 H       1  UNL1        0.0271
     37 H           6.1285    0.8531    0.0000 H       1  UNL1        0.0271
     38 H           8.0883   -1.9935    0.0000 H       1  UNL1        0.0268
     39 H           8.8767   -1.7358    0.0000 H       1  UNL1        0.0268
     40 H           5.4490    0.4607    0.0000 H       1  UNL1        0.0268
     41 H           5.0504   -0.2296    0.0000 H       1  UNL1        0.0268
     42 H           9.3838   -1.0366    0.0000 H       1  UNL1        0.0268
     43 H           9.3838   -0.2072    0.0000 H       1  UNL1        0.0268
     44 H           8.0433    1.0055    0.0000 H       1  UNL1        0.0301
     45 H           6.7612   -3.2438    0.0000 H       1  UNL1        0.0348
     46 H           7.1523   -2.5479    0.0000 H       1  UNL1        0.0348
     47 H           8.0131    0.8781    0.0000 H       1  UNL1        0.0235
     48 H           7.3931    1.4981    0.0000 H       1  UNL1        0.0235
     49 H           6.7731    0.8781    0.0000 H       1  UNL1        0.0235
     50 H           4.2324   -0.5980    0.0000 H       1  UNL1        0.0278
     51 H           3.4343   -0.5826    0.0000 H       1  UNL1        0.0278
     52 H           5.3787   -0.6335    0.0000 H       1  UNL1        0.0238
     53 H           4.7635   -0.0088    0.0000 H       1  UNL1        0.0238
     54 H           4.1388   -0.6240    0.0000 H       1  UNL1        0.0238
     55 H           9.6490    0.7199    0.0000 H       1  UNL1        0.0268
     56 H          10.2423    1.2522    0.0000 H       1  UNL1        0.0268
     57 H           8.4436    2.2917    0.0000 H       1  UNL1        0.0233
     58 H           7.5681    2.3391    0.0000 H       1  UNL1        0.0233
     59 H           7.5207    1.4636    0.0000 H       1  UNL1        0.0233
     60 H           2.6718   -1.0073    0.0000 H       1  UNL1        0.0345
     61 H           2.2647   -1.6940    0.0000 H       1  UNL1        0.0345
     62 H           3.8100   -3.8401    0.0000 H       1  UNL1        0.0656
     63 H           9.9186    2.9098    0.0000 H       1  UNL1        0.0268
     64 H           9.3253    2.3774    0.0000 H       1  UNL1        0.0268
     65 H          10.7250    1.9070    0.0000 H       1  UNL1        0.0303
     66 H          11.4209    4.0362    0.0000 H       1  UNL1        0.0298
     67 H          11.0591    1.4244    0.0000 H       1  UNL1        0.0265
     68 H          11.8167    1.1768    0.0000 H       1  UNL1        0.0265
     69 H          12.3347    3.0464    0.0000 H       1  UNL1        0.0232
     70 H          12.8135    3.7809    0.0000 H       1  UNL1        0.0232
     71 H          12.0790    4.2597    0.0000 H       1  UNL1        0.0232
     72 H          11.0219    4.6052    0.0000 H       1  UNL1        0.0232
     73 H          10.1464    4.6526    0.0000 H       1  UNL1        0.0232
     74 H          10.0990    3.7771    0.0000 H       1  UNL1        0.0232
     75 H          12.6918    1.3516    0.0000 H       1  UNL1        0.0230
     76 H          13.1707    2.0861    0.0000 H       1  UNL1        0.0230
     77 H          12.4361    2.5649    0.0000 H       1  UNL1        0.0230
@<TRIPOS>BOND
     1     1    18    2
     2     2    25    2
     3     3     4    1
     4     3     6    1
     5     3     8    1
     6     3    15    1
     7     4     5    1
     8     4     9    1
     9     4    32    1
    10     5     7    1
    11     5    14    1
    12     5    33    1
    13     6    11    1
    14     6    13    1
    15     6    34    1
    16     7    10    1
    17     7    12    1
    18     7    35    1
    19     8    10    1
    20     8    36    1
    21     8    37    1
    22     9    11    1
    23     9    38    1
    24     9    39    1
    25    10    40    1
    26    10    41    1
    27    11    42    1
    28    11    43    1
    29    12    16    1
    30    12    17    1
    31    12    19    1
    32    13    20    1
    33    13    21    1
    34    13    44    1
    35    14    18    1
    36    14    45    1
    37    14    46    1
    38    15    47    1
    39    15    48    1
    40    15    49    1
    41    16    18    1
    42    16    23    2
    43    17    22    1
    44    17    50    1
    45    17    51    1
    46    19    52    1
    47    19    53    1
    48    19    54    1
    49    20    24    1
    50    20    55    1
    51    20    56    1
    52    21    57    1
    53    21    58    1
    54    21    59    1
    55    22    25    1
    56    22    60    1
    57    22    61    1
    58    23    25    1
    59    23    62    1
    60    26    24    1
    61    24    63    1
    62    24    64    1
    63    26    27    1
    64    26    28    1
    65    26    65    1
    66    27    29    1
    67    27    30    1
    68    27    66    1
    69    28    31    1
    70    28    67    1
    71    28    68    1
    72    29    69    1
    73    29    70    1
    74    29    71    1
    75    30    72    1
    76    30    73    1
    77    30    74    1
    78    31    75    1
    79    31    76    1
    80    31    77    1
