@<TRIPOS>MOLECULE
IMPHY017918
 14 14 0 0 0
SMALL
GASTEIGER

@<TRIPOS>ATOM
      1 C           5.7781   -1.3174    0.0000 C.2     1  UNL1        0.3173
      2 O           5.7781    0.0000    0.0000 O.2     1  UNL1       -0.2501
      3 C           9.2221   -1.9917    0.0000 C.2     1  UNL1        0.0208
      4 C          10.3736   -1.3174    0.0000 C.2     1  UNL1       -0.0011
      5 C           4.5955   -1.9917    0.0000 C.3     1  UNL1        0.1096
      6 O           6.9088   -1.9917    0.0000 O.3     1  UNL1       -0.4435
      7 C           3.4440   -1.3174    0.0000 C.3     1  UNL1        0.0116
      8 C           2.2926   -1.9917    0.0000 C.3     1  UNL1        0.0006
      9 C           8.0603   -1.3174    0.0000 C.3     1  UNL1        0.2348
     10 C           2.2926   -3.3299    0.0000 C.3     1  UNL1        0.0000
     11 C           1.1515   -1.3382    0.0000 C.3     1  UNL1        0.0000
     12 C           0.0000   -2.0125    0.0000 C.3     1  UNL1        0.0000
     13 C           1.1515   -3.9834    0.0000 C.3     1  UNL1        0.0000
     14 C           0.0000   -3.3299    0.0000 C.3     1  UNL1        0.0000
@<TRIPOS>BOND
     1     1     2    2
     2     1     5    1
     3     1     6    1
     4     3     9    1
     5     3     4    2
     6     5     7    1
     7     6     9    1
     8     7     8    1
     9     8    10    1
    10     8    11    1
    11    10    13    1
    12    11    12    1
    13    12    14    1
    14    13    14    1
