@<TRIPOS>MOLECULE
IMPHY007119
 21 22 0 0 0
SMALL
GASTEIGER

@<TRIPOS>ATOM
      1 O           2.0000   -1.4573    0.0000 O.3     1  UNL1       -0.4771
      2 O           3.7320   -1.4573    0.0000 O.2     1  UNL1       -0.2451
      3 C           3.7320    0.5427    0.0000 C.ar    1  UNL1       -0.0039
      4 C           3.7320    1.5427    0.0000 C.ar    1  UNL1       -0.0171
      5 C           2.8660    0.0427    0.0000 C.ar    1  UNL1        0.0665
      6 C           2.8660    2.0427    0.0000 C.ar    1  UNL1       -0.0540
      7 C           4.6260    0.0080    0.0000 C.ar    1  UNL1       -0.0532
      8 C           4.6260    2.0773    0.0000 C.ar    1  UNL1       -0.0540
      9 C           2.0000    0.5427    0.0000 C.ar    1  UNL1       -0.0472
     10 C           2.0000    1.5427    0.0000 C.ar    1  UNL1       -0.0604
     11 C           5.5321    0.5219    0.0000 C.ar    1  UNL1       -0.0611
     12 C           5.5321    1.5635    0.0000 C.ar    1  UNL1       -0.0612
     13 C           2.8660   -0.9573    0.0000 C.2     1  UNL1        0.3374
     14 H           2.8660    2.6627    0.0000 H       1  UNL1        0.0624
     15 H           4.6188   -0.6120    0.0000 H       1  UNL1        0.0624
     16 H           4.6188    2.6973    0.0000 H       1  UNL1        0.0624
     17 H           1.4631    0.2327    0.0000 H       1  UNL1        0.0626
     18 H           1.4631    1.8527    0.0000 H       1  UNL1        0.0618
     19 H           6.0678    0.2098    0.0000 H       1  UNL1        0.0618
     20 H           6.0678    1.8756    0.0000 H       1  UNL1        0.0618
     21 H           2.0000   -2.0773    0.0000 H       1  UNL1        0.2954
@<TRIPOS>BOND
     1     1    13    1
     2     1    21    1
     3     2    13    2
     4     3     4   ar
     5     3     5   ar
     6     3     7   ar
     7     4     6   ar
     8     4     8   ar
     9     5     9   ar
    10     5    13    1
    11     6    10   ar
    12     6    14    1
    13     7    11   ar
    14     7    15    1
    15     8    12   ar
    16     8    16    1
    17     9    10   ar
    18     9    17    1
    19    10    18    1
    20    11    12   ar
    21    11    19    1
    22    12    20    1
