@<TRIPOS>MOLECULE
IMPHY010771
 25 27 0 0 0
SMALL
GASTEIGER

@<TRIPOS>ATOM
      1 C           3.4545   -3.9957    0.0000 C.3     1  UNL1        0.0481
      2 C           2.3030   -3.3278    0.0000 C.3     1  UNL1        0.0770
      3 C           1.1515   -3.9957    0.0000 C.2     1  UNL1        0.1694
      4 C           1.1515   -5.3084    0.0000 C.2     1  UNL1        0.0086
      5 C           2.3030   -5.9877    0.0000 C.2     1  UNL1       -0.0266
      6 C           3.4545   -5.3084    0.0000 C.2     1  UNL1       -0.0195
      7 C           4.6059   -5.9877    0.0000 C.2     1  UNL1        0.0378
      8 C           5.7574   -5.3084    0.0000 C.2     1  UNL1        0.1982
      9 C           5.7574   -3.9957    0.0000 C.ar    1  UNL1        0.0771
     10 C           6.9089   -3.3278    0.0000 C.ar    1  UNL1        0.1980
     11 C           6.9089   -1.9921    0.0000 C.ar    1  UNL1        0.0633
     12 C           5.7574   -1.3357    0.0000 C.ar    1  UNL1        0.2333
     13 C           4.6059   -1.9921    0.0000 C.ar    1  UNL1        0.2305
     14 C           4.6059   -3.3278    0.0000 C.ar    1  UNL1        0.0297
     15 C           3.4545   -2.6599    0.0000 C.3     1  UNL1        0.0093
     16 O           0.0000   -3.3278    0.0000 O.2     1  UNL1       -0.2917
     17 C           0.0000   -5.9877    0.0000 C.3     1  UNL1        0.0337
     18 C           2.3030   -7.3119    0.0000 C.3     1  UNL1        0.0305
     19 O           6.9089   -5.9762    0.0000 O.2     1  UNL1       -0.2865
     20 O           8.0604   -3.9957    0.0000 O.3     1  UNL1       -0.2867
     21 C           8.0604   -1.3242    0.0000 C.3     1  UNL1        0.0589
     22 C           9.2119   -1.9921    0.0000 C.2     1  UNL1       -0.0212
     23 C          10.3634   -1.3242    0.0000 C.2     1  UNL1       -0.0046
     24 O           5.7574    0.0000    0.0000 O.3     1  UNL1       -0.2834
     25 O           3.4545   -1.3242    0.0000 O.3     1  UNL1       -0.2835
@<TRIPOS>BOND
     1     1     2    1
     2     1    14    1
     3     1     6    1
     4     1    15    1
     5     2     3    1
     6     3     4    1
     7     3    16    2
     8     4     5    2
     9     4    17    1
    10     5     6    1
    11     5    18    1
    12     6     7    2
    13     7     8    1
    14     8     9    1
    15     8    19    2
    16     9    10   ar
    17     9    14   ar
    18    10    11   ar
    19    10    20    1
    20    11    12   ar
    21    11    21    1
    22    12    13   ar
    23    12    24    1
    24    13    14   ar
    25    13    25    1
    26    21    22    1
    27    22    23    2
