@<TRIPOS>MOLECULE
IMPHY010948
 66 69 0 0 0
SMALL
GASTEIGER

@<TRIPOS>ATOM
      1 O           9.3900   -0.6081    0.0000 O.3     1  UNL1       -0.4807
      2 O           8.2728    2.1926    0.0000 O.3     1  UNL1       -0.5057
      3 O           5.8980   -0.5734    0.0000 O.3     1  UNL1       -0.5055
      4 O           6.5820    3.3060    0.0000 O.3     1  UNL1       -0.5060
      5 O           3.9284    1.0793    0.0000 O.3     1  UNL1       -0.5055
      6 O           8.4960   -2.0734    0.0000 O.2     1  UNL1       -0.2870
      7 O           3.3268    4.4908    0.0000 O.3     1  UNL1       -0.5056
      8 O           2.3008    1.6717    0.0000 O.2     1  UNL1       -0.2921
      9 C          10.2961   -0.0942    0.0000 C.3     1  UNL1        0.1235
     10 C           8.4960   -0.0734    0.0000 C.ar    1  UNL1        0.1467
     11 C           8.4960    0.9266    0.0000 C.ar    1  UNL1        0.0591
     12 C           6.7640    0.9266    0.0000 C.ar    1  UNL1        0.0414
     13 C           5.8980    1.4266    0.0000 C.3     1  UNL1        0.0115
     14 C           7.6300    1.4266    0.0000 C.ar    1  UNL1        0.1344
     15 C          10.2961    0.9474    0.0000 C.2     1  UNL1       -0.0408
     16 C           7.6300   -0.5734    0.0000 C.ar    1  UNL1        0.1057
     17 C           6.7640   -0.0734    0.0000 C.ar    1  UNL1        0.1382
     18 C           9.3900    1.4613    0.0000 C.2     1  UNL1       -0.0478
     19 C          11.2961   -0.0981    0.0000 C.3     1  UNL1       -0.0215
     20 C          10.7927   -0.9622    0.0000 C.3     1  UNL1       -0.0215
     21 C           5.2552    2.1926    0.0000 C.ar    1  UNL1        0.0411
     22 C           5.5972    3.1323    0.0000 C.ar    1  UNL1        0.1302
     23 C           4.2704    2.0190    0.0000 C.ar    1  UNL1        0.1378
     24 C           7.6300   -1.5734    0.0000 C.2     1  UNL1        0.1931
     25 C           4.9544    3.8984    0.0000 C.ar    1  UNL1        0.0335
     26 C           3.6276    2.7850    0.0000 C.ar    1  UNL1        0.1005
     27 C           3.9696    3.7247    0.0000 C.ar    1  UNL1        0.1372
     28 C           5.2964    4.8381    0.0000 C.3     1  UNL1       -0.0327
     29 C           6.7640   -2.0734    0.0000 C.2     1  UNL1       -0.0135
     30 C           2.6428    2.6114    0.0000 C.2     1  UNL1        0.1671
     31 C           6.7640   -3.0734    0.0000 C.2     1  UNL1       -0.0510
     32 C           2.0000    3.3774    0.0000 C.3     1  UNL1       -0.0012
     33 C           5.8980   -3.5734    0.0000 C.ar    1  UNL1       -0.0249
     34 C           5.0320   -3.0734    0.0000 C.ar    1  UNL1       -0.0546
     35 C           5.8980   -4.5734    0.0000 C.ar    1  UNL1       -0.0546
     36 C           4.1659   -3.5734    0.0000 C.ar    1  UNL1       -0.0612
     37 C           5.0320   -5.0734    0.0000 C.ar    1  UNL1       -0.0612
     38 C           4.1659   -4.5734    0.0000 C.ar    1  UNL1       -0.0617
     39 H           5.3040    1.2488    0.0000 H       1  UNL1        0.0366
     40 H           6.2965    1.9016    0.0000 H       1  UNL1        0.0366
     41 H          10.8318    1.2595    0.0000 H       1  UNL1        0.0611
     42 H           9.3828    2.0812    0.0000 H       1  UNL1        0.0624
     43 H          11.2937   -0.7181    0.0000 H       1  UNL1        0.0271
     44 H          11.9161   -0.1005    0.0000 H       1  UNL1        0.0271
     45 H          11.2984    0.5219    0.0000 H       1  UNL1        0.0271
     46 H          10.2546   -1.2701    0.0000 H       1  UNL1        0.0271
     47 H          11.1006   -1.5003    0.0000 H       1  UNL1        0.0271
     48 H          11.3308   -0.6542    0.0000 H       1  UNL1        0.0271
     49 H           8.0608    2.7753    0.0000 H       1  UNL1        0.2922
     50 H           5.3610   -0.2634    0.0000 H       1  UNL1        0.2922
     51 H           5.8790    4.6260    0.0000 H       1  UNL1        0.0280
     52 H           5.5085    5.4207    0.0000 H       1  UNL1        0.0280
     53 H           4.7138    5.0501    0.0000 H       1  UNL1        0.0280
     54 H           6.2271   -1.7634    0.0000 H       1  UNL1        0.0656
     55 H           6.7941    3.8886    0.0000 H       1  UNL1        0.2922
     56 H           3.3178    0.9716    0.0000 H       1  UNL1        0.2922
     57 H           7.3009   -3.3834    0.0000 H       1  UNL1        0.0625
     58 H           2.4750    3.7760    0.0000 H       1  UNL1        0.0309
     59 H           1.6015    3.8524    0.0000 H       1  UNL1        0.0309
     60 H           1.5250    2.9789    0.0000 H       1  UNL1        0.0309
     61 H           3.5389    5.0734    0.0000 H       1  UNL1        0.2922
     62 H           5.0320   -2.4534    0.0000 H       1  UNL1        0.0623
     63 H           6.4349   -4.8834    0.0000 H       1  UNL1        0.0623
     64 H           3.6290   -3.2634    0.0000 H       1  UNL1        0.0618
     65 H           5.0320   -5.6934    0.0000 H       1  UNL1        0.0618
     66 H           3.6290   -4.8834    0.0000 H       1  UNL1        0.0618
@<TRIPOS>BOND
     1     1     9    1
     2     1    10    1
     3     2    14    1
     4     2    49    1
     5     3    17    1
     6     3    50    1
     7     4    22    1
     8     4    55    1
     9     5    23    1
    10     5    56    1
    11     6    24    2
    12     7    27    1
    13     7    61    1
    14     8    30    2
    15     9    15    1
    16     9    19    1
    17     9    20    1
    18    10    11   ar
    19    10    16   ar
    20    11    14   ar
    21    11    18    1
    22    12    13    1
    23    12    14   ar
    24    12    17   ar
    25    13    21    1
    26    13    39    1
    27    13    40    1
    28    15    18    2
    29    15    41    1
    30    16    17   ar
    31    16    24    1
    32    18    42    1
    33    19    43    1
    34    19    44    1
    35    19    45    1
    36    20    46    1
    37    20    47    1
    38    20    48    1
    39    21    22   ar
    40    21    23   ar
    41    22    25   ar
    42    23    26   ar
    43    24    29    1
    44    25    27   ar
    45    25    28    1
    46    26    27   ar
    47    26    30    1
    48    28    51    1
    49    28    52    1
    50    28    53    1
    51    29    31    2
    52    29    54    1
    53    30    32    1
    54    31    33    1
    55    31    57    1
    56    32    58    1
    57    32    59    1
    58    32    60    1
    59    33    34   ar
    60    33    35   ar
    61    34    36   ar
    62    34    62    1
    63    35    37   ar
    64    35    63    1
    65    36    38   ar
    66    36    64    1
    67    37    38   ar
    68    37    65    1
    69    38    66    1
