@<TRIPOS>MOLECULE
IMPHY006227
 36 37 0 0 0
SMALL
GASTEIGER

@<TRIPOS>ATOM
      1 O           2.7320   -1.2073    0.0000 O.3     1  UNL1       -0.3825
      2 O           6.3580    1.2580    0.0000 O.2     1  UNL1       -0.4214
      3 O           2.8660   -2.7073    0.0000 O.3     1  UNL1       -0.3919
      4 O           2.8660    1.2927    0.0000 O.3     1  UNL1       -0.4944
      5 O           8.1282    1.2685    0.0000 O.2     1  UNL1       -0.2452
      6 C           3.7320   -1.2073    0.0000 C.3     1  UNL1        0.1046
      7 C           3.7320   -0.2073    0.0000 C.2     1  UNL1       -0.0502
      8 C           4.5981    1.2927    0.0000 C.ar    1  UNL1        0.0594
      9 C           3.7320   -2.2073    0.0000 C.3     1  UNL1        0.0763
     10 C           4.7320   -1.2073    0.0000 C.3     1  UNL1       -0.0303
     11 C           5.4641    1.7927    0.0000 C.ar    1  UNL1        0.1496
     12 C           4.5981    0.2927    0.0000 C.2     1  UNL1       -0.0487
     13 C           5.4641    2.7927    0.0000 C.ar    1  UNL1        0.0184
     14 C           3.7320    1.7927    0.0000 C.ar    1  UNL1        0.1308
     15 C           4.5981    3.2927    0.0000 C.ar    1  UNL1       -0.0476
     16 C           3.7320    2.7927    0.0000 C.ar    1  UNL1       -0.0186
     17 C           6.3580    3.3273    0.0000 C.ar    1  UNL1       -0.0443
     18 C           7.2641    2.8135    0.0000 C.ar    1  UNL1        0.0236
     19 C           7.2641    1.7718    0.0000 C.ar    1  UNL1        0.3372
     20 C           2.0000    1.7927    0.0000 C.3     1  UNL1        0.0788
     21 H           3.1951    0.1027    0.0000 H       1  UNL1        0.0601
     22 H           3.9441   -2.7899    0.0000 H       1  UNL1        0.0589
     23 H           4.3426   -2.0997    0.0000 H       1  UNL1        0.0589
     24 H           4.7320   -1.8273    0.0000 H       1  UNL1        0.0261
     25 H           5.3520   -1.2073    0.0000 H       1  UNL1        0.0261
     26 H           4.7320   -0.5873    0.0000 H       1  UNL1        0.0261
     27 H           5.1350   -0.0173    0.0000 H       1  UNL1        0.0624
     28 H           4.5981    3.9127    0.0000 H       1  UNL1        0.0626
     29 H           3.1951    3.1027    0.0000 H       1  UNL1        0.0654
     30 H           2.4220   -1.7443    0.0000 H       1  UNL1        0.2107
     31 H           6.3509    3.9473    0.0000 H       1  UNL1        0.0627
     32 H           7.7998    3.1256    0.0000 H       1  UNL1        0.0689
     33 H           2.8660   -3.3273    0.0000 H       1  UNL1        0.2095
     34 H           2.3100    2.3296    0.0000 H       1  UNL1        0.0660
     35 H           1.4631    2.1027    0.0000 H       1  UNL1        0.0660
     36 H           1.6900    1.2557    0.0000 H       1  UNL1        0.0660
@<TRIPOS>BOND
     1     1     6    1
     2     1    30    1
     3     2    11   ar
     4     2    19   ar
     5     3     9    1
     6     3    33    1
     7     4    14    1
     8     4    20    1
     9     5    19    2
    10     6     7    1
    11     6     9    1
    12     6    10    1
    13     7    12    2
    14     7    21    1
    15     8    11   ar
    16     8    12    1
    17     8    14   ar
    18     9    22    1
    19     9    23    1
    20    10    24    1
    21    10    25    1
    22    10    26    1
    23    11    13   ar
    24    12    27    1
    25    13    15   ar
    26    13    17   ar
    27    14    16   ar
    28    15    16   ar
    29    15    28    1
    30    16    29    1
    31    17    18   ar
    32    17    31    1
    33    18    19   ar
    34    18    32    1
    35    20    34    1
    36    20    35    1
    37    20    36    1
