@<TRIPOS>MOLECULE
IMPHY006418
 33 33 0 0 0
SMALL
GASTEIGER

@<TRIPOS>ATOM
      1 C           3.0000   -1.0000    0.0000 C.3     1  UNL1       -0.0093
      2 C           3.0000   -2.0000    0.0000 C.3     1  UNL1       -0.0404
      3 C           3.8660   -0.5000    0.0000 C.2     1  UNL1       -0.0391
      4 C           3.8660   -2.5000    0.0000 C.3     1  UNL1       -0.0334
      5 C           2.0000   -1.0000    0.0000 C.3     1  UNL1       -0.0558
      6 C           2.5000   -0.1340    0.0000 C.3     1  UNL1       -0.0558
      7 C           4.7320   -1.0000    0.0000 C.2     1  UNL1       -0.0507
      8 C           4.7320   -2.0000    0.0000 C.2     1  UNL1       -0.0808
      9 C           3.8660    0.5000    0.0000 C.2     1  UNL1       -0.0581
     10 C           5.5981   -0.5000    0.0000 C.3     1  UNL1       -0.0397
     11 C           4.7320    1.0000    0.0000 C.2     1  UNL1       -0.0657
     12 C           4.7320    2.0000    0.0000 C.2     1  UNL1       -0.0871
     13 C           5.5981    2.5000    0.0000 C.3     1  UNL1       -0.0465
     14 H           2.3894   -1.8923    0.0000 H       1  UNL1        0.0277
     15 H           2.7880   -2.5826    0.0000 H       1  UNL1        0.0277
     16 H           3.4675   -2.9750    0.0000 H       1  UNL1        0.0308
     17 H           4.2646   -2.9750    0.0000 H       1  UNL1        0.0308
     18 H           2.0000   -0.3800    0.0000 H       1  UNL1        0.0238
     19 H           1.3800   -1.0000    0.0000 H       1  UNL1        0.0238
     20 H           2.0000   -1.6200    0.0000 H       1  UNL1        0.0238
     21 H           3.0369    0.1760    0.0000 H       1  UNL1        0.0238
     22 H           2.1900    0.4030    0.0000 H       1  UNL1        0.0238
     23 H           1.9631   -0.4440    0.0000 H       1  UNL1        0.0238
     24 H           5.2690   -2.3100    0.0000 H       1  UNL1        0.0575
     25 H           3.3291    0.8100    0.0000 H       1  UNL1        0.0620
     26 H           5.9081   -1.0369    0.0000 H       1  UNL1        0.0278
     27 H           6.1350   -0.1900    0.0000 H       1  UNL1        0.0278
     28 H           5.2881    0.0369    0.0000 H       1  UNL1        0.0278
     29 H           5.2690    0.6900    0.0000 H       1  UNL1        0.0614
     30 H           4.1951    2.3100    0.0000 H       1  UNL1        0.0569
     31 H           5.9081    1.9631    0.0000 H       1  UNL1        0.0272
     32 H           6.1350    2.8100    0.0000 H       1  UNL1        0.0272
     33 H           5.2881    3.0369    0.0000 H       1  UNL1        0.0272
@<TRIPOS>BOND
     1     1     2    1
     2     1     3    1
     3     1     5    1
     4     1     6    1
     5     2     4    1
     6     2    14    1
     7     2    15    1
     8     3     7    1
     9     3     9    2
    10     4     8    1
    11     4    16    1
    12     4    17    1
    13     5    18    1
    14     5    19    1
    15     5    20    1
    16     6    21    1
    17     6    22    1
    18     6    23    1
    19     7     8    2
    20     7    10    1
    21     8    24    1
    22     9    11    1
    23     9    25    1
    24    10    26    1
    25    10    27    1
    26    10    28    1
    27    11    12    2
    28    11    29    1
    29    12    13    1
    30    12    30    1
    31    13    31    1
    32    13    32    1
    33    13    33    1
