@<TRIPOS>MOLECULE
IMPHY012880
 121 127 0 0 0
SMALL
GASTEIGER

@<TRIPOS>ATOM
      1 O           8.5991   -0.3696    0.0000 O.3     1  UNL1       -0.3312
      2 O           6.8671   -2.3696    0.0000 O.3     1  UNL1       -0.3401
      3 O          10.3312   -2.3696    0.0000 O.3     1  UNL1       -0.3366
      4 O           7.7331   -3.8696    0.0000 O.3     1  UNL1       -0.3431
      5 O          11.9588   -1.7772    0.0000 O.3     1  UNL1       -0.3394
      6 O           8.5991   -3.3696    0.0000 O.3     1  UNL1       -0.3863
      7 O           6.0010   -0.8696    0.0000 O.3     1  UNL1       -0.3460
      8 O          10.3312   -0.3696    0.0000 O.3     1  UNL1       -0.4606
      9 O           5.1350    0.6304    0.0000 O.3     1  UNL1       -0.3405
     10 O           5.1350   -3.3696    0.0000 O.3     1  UNL1       -0.3841
     11 O          11.0152   -4.2490    0.0000 O.3     1  UNL1       -0.3841
     12 O           5.1350   -5.3696    0.0000 O.3     1  UNL1       -0.3864
     13 O          12.9848   -4.5962    0.0000 O.3     1  UNL1       -0.3864
     14 O          14.2704   -3.0642    0.0000 O.3     1  UNL1       -0.3864
     15 O           6.8671   -6.3696    0.0000 O.3     1  UNL1       -0.3866
     16 O           4.2690   -1.8696    0.0000 O.3     1  UNL1       -0.3841
     17 O           2.5369   -0.8696    0.0000 O.3     1  UNL1       -0.3864
     18 O           2.5369    1.1304    0.0000 O.3     1  UNL1       -0.3865
     19 O          14.5712   -1.3584    0.0000 O.3     1  UNL1       -0.4621
     20 O           3.4030    2.6304    0.0000 O.3     1  UNL1       -0.3924
     21 O           8.5752    2.6930    0.0000 O.2     1  UNL1       -0.4544
     22 O          12.0774    2.7096    0.0000 O.3     1  UNL1       -0.5058
     23 O          14.8719    0.3473    0.0000 O.2     1  UNL1       -0.2512
     24 O          11.1675    4.2030    0.0000 O.2     1  UNL1       -0.2869
     25 O           5.0996    5.6796    0.0000 O.3     1  UNL1       -0.4951
     26 C           7.7331   -1.8696    0.0000 C.3     1  UNL1        0.1185
     27 C           8.5991   -2.3696    0.0000 C.3     1  UNL1        0.1159
     28 C           9.4651   -1.8696    0.0000 C.3     1  UNL1        0.1519
     29 C           7.7331   -0.8696    0.0000 C.3     1  UNL1        0.1147
     30 C           9.4651   -0.8696    0.0000 C.3     1  UNL1        0.2312
     31 C           6.8671   -3.3696    0.0000 C.3     1  UNL1        0.1883
     32 C          11.3160   -2.5432    0.0000 C.3     1  UNL1        0.1886
     33 C           6.8671   -0.3696    0.0000 C.3     1  UNL1        0.0796
     34 C           6.0010   -3.8696    0.0000 C.3     1  UNL1        0.1341
     35 C          11.6580   -3.4829    0.0000 C.3     1  UNL1        0.1341
     36 C           6.0010   -4.8696    0.0000 C.3     1  UNL1        0.1140
     37 C          12.6428   -3.6566    0.0000 C.3     1  UNL1        0.1141
     38 C          13.2856   -2.8905    0.0000 C.3     1  UNL1        0.1129
     39 C           6.8671   -5.3696    0.0000 C.3     1  UNL1        0.1095
     40 C          12.9436   -1.9508    0.0000 C.3     1  UNL1        0.1240
     41 C           7.7331   -4.8696    0.0000 C.3     1  UNL1        0.0873
     42 C           5.1350   -0.3696    0.0000 C.3     1  UNL1        0.1880
     43 C           4.2690   -0.8696    0.0000 C.3     1  UNL1        0.1341
     44 C           3.4030   -0.3696    0.0000 C.3     1  UNL1        0.1141
     45 C           3.4030    0.6304    0.0000 C.3     1  UNL1        0.1119
     46 C           4.2690    1.1304    0.0000 C.3     1  UNL1        0.1130
     47 C          13.5864   -1.1848    0.0000 C.3     1  UNL1        0.1211
     48 C           8.5991   -5.3696    0.0000 C.3     1  UNL1       -0.0361
     49 C          10.3312    0.6304    0.0000 C.ar    1  UNL1        0.1310
     50 C           4.2690    2.1304    0.0000 C.3     1  UNL1        0.0730
     51 C           9.4311    1.1547    0.0000 C.ar    1  UNL1        0.0235
     52 C          11.2312    1.1547    0.0000 C.ar    1  UNL1        0.0226
     53 C           9.4431    2.1963    0.0000 C.ar    1  UNL1        0.1462
     54 C          11.2192    2.1963    0.0000 C.ar    1  UNL1        0.1347
     55 C          10.3072    2.6996    0.0000 C.ar    1  UNL1        0.1055
     56 C          15.2140   -0.5924    0.0000 C.2     1  UNL1        0.3040
     57 C          10.3034    3.6996    0.0000 C.ar    1  UNL1        0.1966
     58 C          16.1988   -0.7660    0.0000 C.3     1  UNL1        0.0332
     59 C           8.5713    3.6929    0.0000 C.ar    1  UNL1        0.1392
     60 C           9.4354    4.1963    0.0000 C.ar    1  UNL1        0.0288
     61 C           7.7034    4.1896    0.0000 C.ar    1  UNL1        0.0176
     62 C           7.6995    5.1896    0.0000 C.ar    1  UNL1       -0.0476
     63 C           6.8393    3.6863    0.0000 C.ar    1  UNL1       -0.0476
     64 C           6.8316    5.6862    0.0000 C.ar    1  UNL1       -0.0193
     65 C           5.9714    4.1829    0.0000 C.ar    1  UNL1       -0.0193
     66 C           5.9675    5.1829    0.0000 C.ar    1  UNL1        0.1201
     67 C           5.0957    6.6796    0.0000 C.3     1  UNL1        0.0788
     68 H           7.7331   -2.4896    0.0000 H       1  UNL1        0.0651
     69 H           9.1360   -2.6796    0.0000 H       1  UNL1        0.0648
     70 H           9.4651   -2.4896    0.0000 H       1  UNL1        0.0687
     71 H           7.7331   -0.2496    0.0000 H       1  UNL1        0.0647
     72 H          10.0021   -1.1796    0.0000 H       1  UNL1        0.1084
     73 H           6.3301   -3.0596    0.0000 H       1  UNL1        0.0938
     74 H          10.9174   -3.0182    0.0000 H       1  UNL1        0.0938
     75 H           7.2656    0.1054    0.0000 H       1  UNL1        0.0587
     76 H           6.4685    0.1054    0.0000 H       1  UNL1        0.0587
     77 H           5.4641   -4.1796    0.0000 H       1  UNL1        0.0671
     78 H          11.8700   -4.0655    0.0000 H       1  UNL1        0.0671
     79 H           6.0010   -5.4896    0.0000 H       1  UNL1        0.0648
     80 H          13.2534   -3.7642    0.0000 H       1  UNL1        0.0648
     81 H          13.6841   -2.4156    0.0000 H       1  UNL1        0.0647
     82 H           7.4040   -5.6796    0.0000 H       1  UNL1        0.0646
     83 H          12.7315   -1.3682    0.0000 H       1  UNL1        0.0658
     84 H           8.2700   -4.5596    0.0000 H       1  UNL1        0.0621
     85 H           5.1350   -0.9896    0.0000 H       1  UNL1        0.0937
     86 H           9.1360   -3.6796    0.0000 H       1  UNL1        0.2100
     87 H           3.7320   -1.1796    0.0000 H       1  UNL1        0.0671
     88 H           2.8660   -0.0596    0.0000 H       1  UNL1        0.0648
     89 H           3.4030    1.2504    0.0000 H       1  UNL1        0.0647
     90 H           4.8059    1.4404    0.0000 H       1  UNL1        0.0647
     91 H          13.7984   -0.6022    0.0000 H       1  UNL1        0.0724
     92 H          13.0494   -0.8748    0.0000 H       1  UNL1        0.0724
     93 H           8.2891   -5.9065    0.0000 H       1  UNL1        0.0255
     94 H           9.1360   -5.6796    0.0000 H       1  UNL1        0.0255
     95 H           8.9091   -4.8326    0.0000 H       1  UNL1        0.0255
     96 H           4.5981   -3.6796    0.0000 H       1  UNL1        0.2101
     97 H          11.2273   -4.8316    0.0000 H       1  UNL1        0.2101
     98 H           5.1350   -5.9896    0.0000 H       1  UNL1        0.2100
     99 H          12.5863   -5.0712    0.0000 H       1  UNL1        0.2100
    100 H           4.8796    2.0228    0.0000 H       1  UNL1        0.0584
    101 H           4.4810    2.7130    0.0000 H       1  UNL1        0.0584
    102 H          14.4824   -3.6468    0.0000 H       1  UNL1        0.2100
    103 H           7.4040   -6.6796    0.0000 H       1  UNL1        0.2100
    104 H           3.7320   -2.1796    0.0000 H       1  UNL1        0.2101
    105 H           2.0000   -0.5596    0.0000 H       1  UNL1        0.2100
    106 H           2.0000    0.8204    0.0000 H       1  UNL1        0.2100
    107 H           8.8918    0.8489    0.0000 H       1  UNL1        0.0691
    108 H          11.7705    0.8489    0.0000 H       1  UNL1        0.0691
    109 H           3.4030    3.2504    0.0000 H       1  UNL1        0.2095
    110 H          16.0911   -1.3766    0.0000 H       1  UNL1        0.0342
    111 H          16.8093   -0.8737    0.0000 H       1  UNL1        0.0342
    112 H          16.3064   -0.1554    0.0000 H       1  UNL1        0.0342
    113 H          12.0678    3.3295    0.0000 H       1  UNL1        0.2922
    114 H           9.4330    4.8163    0.0000 H       1  UNL1        0.0693
    115 H           8.2353    5.5017    0.0000 H       1  UNL1        0.0626
    116 H           6.8417    3.0663    0.0000 H       1  UNL1        0.0626
    117 H           6.8292    6.3062    0.0000 H       1  UNL1        0.0654
    118 H           5.4356    3.8708    0.0000 H       1  UNL1        0.0654
    119 H           5.7157    6.6820    0.0000 H       1  UNL1        0.0660
    120 H           5.0933    7.2996    0.0000 H       1  UNL1        0.0660
    121 H           4.4757    6.6772    0.0000 H       1  UNL1        0.0660
@<TRIPOS>BOND
     1     1    29    1
     2     1    30    1
     3     2    26    1
     4     2    31    1
     5     3    28    1
     6     3    32    1
     7     4    31    1
     8     4    41    1
     9     5    32    1
    10     5    40    1
    11     6    27    1
    12     6    86    1
    13     7    33    1
    14     7    42    1
    15     8    30    1
    16     8    49    1
    17     9    42    1
    18     9    46    1
    19    10    34    1
    20    10    96    1
    21    11    35    1
    22    11    97    1
    23    12    36    1
    24    12    98    1
    25    13    37    1
    26    13    99    1
    27    14    38    1
    28    14   102    1
    29    15    39    1
    30    15   103    1
    31    16    43    1
    32    16   104    1
    33    17    44    1
    34    17   105    1
    35    18    45    1
    36    18   106    1
    37    19    47    1
    38    19    56    1
    39    20    50    1
    40    20   109    1
    41    21    53   ar
    42    21    59   ar
    43    22    54    1
    44    22   113    1
    45    23    56    2
    46    24    57    2
    47    25    66    1
    48    25    67    1
    49    26    27    1
    50    26    29    1
    51    26    68    1
    52    27    28    1
    53    27    69    1
    54    28    30    1
    55    28    70    1
    56    29    33    1
    57    29    71    1
    58    30    72    1
    59    31    34    1
    60    31    73    1
    61    32    35    1
    62    32    74    1
    63    33    75    1
    64    33    76    1
    65    34    36    1
    66    34    77    1
    67    35    37    1
    68    35    78    1
    69    36    39    1
    70    36    79    1
    71    37    38    1
    72    37    80    1
    73    38    40    1
    74    38    81    1
    75    39    41    1
    76    39    82    1
    77    40    47    1
    78    40    83    1
    79    41    48    1
    80    41    84    1
    81    42    43    1
    82    42    85    1
    83    43    44    1
    84    43    87    1
    85    44    45    1
    86    44    88    1
    87    45    46    1
    88    45    89    1
    89    46    50    1
    90    46    90    1
    91    47    91    1
    92    47    92    1
    93    48    93    1
    94    48    94    1
    95    48    95    1
    96    49    51   ar
    97    49    52   ar
    98    50   100    1
    99    50   101    1
   100    51    53   ar
   101    51   107    1
   102    52    54   ar
   103    52   108    1
   104    53    55   ar
   105    54    55   ar
   106    55    57   ar
   107    56    58    1
   108    57    60   ar
   109    58   110    1
   110    58   111    1
   111    58   112    1
   112    59    60   ar
   113    59    61    1
   114    60   114    1
   115    61    62   ar
   116    61    63   ar
   117    62    64   ar
   118    62   115    1
   119    63    65   ar
   120    63   116    1
   121    64    66   ar
   122    64   117    1
   123    65    66   ar
   124    65   118    1
   125    67   119    1
   126    67   120    1
   127    67   121    1
