@<TRIPOS>MOLECULE
IMPHY003285
 30 32 0 0 0
SMALL
GASTEIGER

@<TRIPOS>ATOM
      1 O           6.0682    1.8367    0.0000 O.2     1  UNL1       -0.2864
      2 O           6.0682   -2.1633    0.0000 O.2     1  UNL1       -0.2866
      3 O           7.8167    1.8713    0.0000 O.3     1  UNL1       -0.5060
      4 O           4.3198    1.8713    0.0000 O.3     1  UNL1       -0.5059
      5 O           2.5381   -1.1875    0.0000 O.3     1  UNL1       -0.5066
      6 O          10.4663   -0.6908    0.0000 O.3     1  UNL1       -0.4771
      7 O           9.5945   -2.1875    0.0000 O.2     1  UNL1       -0.2451
      8 C           6.9343    0.3367    0.0000 C.ar    1  UNL1        0.0746
      9 C           6.9343   -0.6633    0.0000 C.ar    1  UNL1        0.0374
     10 C           5.2022    0.3367    0.0000 C.ar    1  UNL1        0.0748
     11 C           5.2022   -0.6633    0.0000 C.ar    1  UNL1        0.0400
     12 C           6.0682    0.8367    0.0000 C.2     1  UNL1        0.2015
     13 C           6.0682   -1.1633    0.0000 C.2     1  UNL1        0.1949
     14 C           7.8282    0.8713    0.0000 C.ar    1  UNL1        0.1291
     15 C           7.8282   -1.1980    0.0000 C.ar    1  UNL1       -0.0360
     16 C           4.3083    0.8713    0.0000 C.ar    1  UNL1        0.1318
     17 C           4.3083   -1.1980    0.0000 C.ar    1  UNL1       -0.0084
     18 C           8.7343   -0.6841    0.0000 C.ar    1  UNL1        0.0630
     19 C           8.7343    0.3575    0.0000 C.ar    1  UNL1       -0.0055
     20 C           3.4022   -0.6841    0.0000 C.ar    1  UNL1        0.1210
     21 C           3.4022    0.3575    0.0000 C.ar    1  UNL1        0.0221
     22 C           9.5984   -1.1875    0.0000 C.2     1  UNL1        0.3369
     23 H           7.8210   -1.8179    0.0000 H       1  UNL1        0.0633
     24 H           4.3154   -1.8179    0.0000 H       1  UNL1        0.0661
     25 H           9.2700    0.6696    0.0000 H       1  UNL1        0.0662
     26 H           2.8665    0.6696    0.0000 H       1  UNL1        0.0691
     27 H           8.3500    2.1875    0.0000 H       1  UNL1        0.2922
     28 H           3.7865    2.1875    0.0000 H       1  UNL1        0.2922
     29 H           2.0000   -0.8795    0.0000 H       1  UNL1        0.2921
     30 H          11.0021   -1.0029    0.0000 H       1  UNL1        0.2954
@<TRIPOS>BOND
     1     1    12    2
     2     2    13    2
     3     3    14    1
     4     3    27    1
     5     4    16    1
     6     4    28    1
     7     5    20    1
     8     5    29    1
     9     6    22    1
    10     6    30    1
    11     7    22    2
    12     8     9   ar
    13     8    12    1
    14     8    14   ar
    15     9    13    1
    16     9    15   ar
    17    10    11   ar
    18    10    12    1
    19    10    16   ar
    20    11    13    1
    21    11    17   ar
    22    14    19   ar
    23    15    18   ar
    24    15    23    1
    25    16    21   ar
    26    17    20   ar
    27    17    24    1
    28    18    19   ar
    29    18    22    1
    30    19    25    1
    31    20    21   ar
    32    21    26    1
