@<TRIPOS>MOLECULE
IMPHY005358
 60 65 0 0 0
SMALL
GASTEIGER

@<TRIPOS>ATOM
      1 O           3.9061    2.5347    0.0000 O.3     1  UNL1       -0.4810
      2 O           7.4260   -2.5347    0.0000 O.3     1  UNL1       -0.4810
      3 O           7.3981    0.5000    0.0000 O.3     1  UNL1       -0.5055
      4 O           3.9340   -0.5000    0.0000 O.3     1  UNL1       -0.5055
      5 C           5.6660   -0.5000    0.0000 C.ar    1  UNL1        0.0390
      6 C           5.6660    0.5000    0.0000 C.ar    1  UNL1        0.0390
      7 C           6.5320   -1.0000    0.0000 C.ar    1  UNL1        0.0285
      8 C           4.8000    1.0000    0.0000 C.ar    1  UNL1        0.0285
      9 C           3.0000    2.0208    0.0000 C.3     1  UNL1        0.1235
     10 C           8.3321   -2.0208    0.0000 C.3     1  UNL1        0.1235
     11 C           4.8000    2.0000    0.0000 C.ar    1  UNL1        0.1373
     12 C           6.5320   -2.0000    0.0000 C.ar    1  UNL1        0.1373
     13 C           5.6660    2.5000    0.0000 C.ar    1  UNL1        0.0279
     14 C           5.6660   -2.5000    0.0000 C.ar    1  UNL1        0.0279
     15 C           6.5320    1.0000    0.0000 C.ar    1  UNL1        0.1331
     16 C           4.8000   -1.0000    0.0000 C.ar    1  UNL1        0.1331
     17 C           4.8000   -2.0000    0.0000 C.ar    1  UNL1        0.0277
     18 C           6.5320    2.0000    0.0000 C.ar    1  UNL1        0.0277
     19 C           7.4260   -0.4653    0.0000 C.2     1  UNL1       -0.0506
     20 C           3.9061    0.4653    0.0000 C.2     1  UNL1       -0.0506
     21 C           8.3321   -0.9792    0.0000 C.2     1  UNL1       -0.0409
     22 C           3.0000    0.9792    0.0000 C.2     1  UNL1       -0.0409
     23 C           9.3320   -2.0247    0.0000 C.3     1  UNL1       -0.0215
     24 C           8.8287   -2.8888    0.0000 C.3     1  UNL1       -0.0215
     25 C           2.0000    2.0247    0.0000 C.3     1  UNL1       -0.0215
     26 C           2.5033    2.8888    0.0000 C.3     1  UNL1       -0.0215
     27 C           5.6500    3.5415    0.0000 C.ar    1  UNL1       -0.0504
     28 C           5.6821   -3.5415    0.0000 C.ar    1  UNL1       -0.0504
     29 C           7.4420    2.5068    0.0000 C.ar    1  UNL1       -0.0504
     30 C           3.8900   -2.5068    0.0000 C.ar    1  UNL1       -0.0504
     31 C           6.5480    4.0693    0.0000 C.ar    1  UNL1       -0.0610
     32 C           4.7840   -4.0693    0.0000 C.ar    1  UNL1       -0.0610
     33 C           7.4501    3.5484    0.0000 C.ar    1  UNL1       -0.0611
     34 C           3.8820   -3.5484    0.0000 C.ar    1  UNL1       -0.0611
     35 H           7.4188    0.1546    0.0000 H       1  UNL1        0.0623
     36 H           3.9132   -0.1546    0.0000 H       1  UNL1        0.0623
     37 H           8.8678   -0.6671    0.0000 H       1  UNL1        0.0611
     38 H           2.4643    0.6671    0.0000 H       1  UNL1        0.0611
     39 H           9.3297   -2.6447    0.0000 H       1  UNL1        0.0271
     40 H           9.9520   -2.0271    0.0000 H       1  UNL1        0.0271
     41 H           3.0415    3.1967    0.0000 H       1  UNL1        0.0271
     42 H           2.1954    3.4269    0.0000 H       1  UNL1        0.0271
     43 H           1.9652    2.5808    0.0000 H       1  UNL1        0.0271
     44 H           2.0024    2.6447    0.0000 H       1  UNL1        0.0271
     45 H           9.3344   -1.4047    0.0000 H       1  UNL1        0.0271
     46 H           8.2906   -3.1967    0.0000 H       1  UNL1        0.0271
     47 H           9.1366   -3.4269    0.0000 H       1  UNL1        0.0271
     48 H           9.3668   -2.5808    0.0000 H       1  UNL1        0.0271
     49 H           1.3800    2.0271    0.0000 H       1  UNL1        0.0271
     50 H           1.9976    1.4047    0.0000 H       1  UNL1        0.0271
     51 H           6.2226   -3.8453    0.0000 H       1  UNL1        0.0625
     52 H           5.1095    3.8453    0.0000 H       1  UNL1        0.0625
     53 H           3.3567   -2.1907    0.0000 H       1  UNL1        0.0625
     54 H           7.9754    2.1907    0.0000 H       1  UNL1        0.0625
     55 H           4.7864   -4.6893    0.0000 H       1  UNL1        0.0618
     56 H           6.5456    4.6893    0.0000 H       1  UNL1        0.0618
     57 H           3.3438   -3.8564    0.0000 H       1  UNL1        0.0618
     58 H           7.9882    3.8564    0.0000 H       1  UNL1        0.0618
     59 H           7.9350    0.8100    0.0000 H       1  UNL1        0.2922
     60 H           3.3970   -0.8100    0.0000 H       1  UNL1        0.2922
@<TRIPOS>BOND
     1     1     9    1
     2     1    11    1
     3     2    10    1
     4     2    12    1
     5     3    15    1
     6     3    59    1
     7     4    16    1
     8     4    60    1
     9     5     6    1
    10     5     7   ar
    11     5    16   ar
    12     6     8   ar
    13     6    15   ar
    14     7    12   ar
    15     7    19    1
    16     8    11   ar
    17     8    20    1
    18     9    22    1
    19     9    25    1
    20     9    26    1
    21    10    21    1
    22    10    23    1
    23    10    24    1
    24    11    13   ar
    25    12    14   ar
    26    13    18   ar
    27    13    27   ar
    28    14    17   ar
    29    14    28   ar
    30    15    18   ar
    31    16    17   ar
    32    17    30   ar
    33    18    29   ar
    34    19    21    2
    35    19    35    1
    36    20    22    2
    37    20    36    1
    38    21    37    1
    39    22    38    1
    40    23    39    1
    41    23    40    1
    42    23    45    1
    43    24    46    1
    44    24    47    1
    45    24    48    1
    46    25    44    1
    47    25    49    1
    48    25    50    1
    49    26    41    1
    50    26    42    1
    51    26    43    1
    52    27    31   ar
    53    27    52    1
    54    28    32   ar
    55    28    51    1
    56    29    33   ar
    57    29    54    1
    58    30    34   ar
    59    30    53    1
    60    31    33   ar
    61    31    56    1
    62    32    34   ar
    63    32    55    1
    64    33    58    1
    65    34    57    1
