@<TRIPOS>MOLECULE
IMPHY011142
 83 87 0 0 0
SMALL
GASTEIGER

@<TRIPOS>ATOM
      1 O           4.7997    2.3830    0.0000 O.3     1  UNL1       -0.4596
      2 O          11.9796   -0.8874    0.0000 O.3     1  UNL1       -0.4559
      3 O           8.0126    3.5907    0.0000 O.2     1  UNL1       -0.2960
      4 O           6.5494   -1.5618    0.0000 O.3     1  UNL1       -0.3803
      5 O           4.7674   -2.4698    0.0000 O.3     1  UNL1       -0.4661
      6 O          12.7181    0.7631    0.0000 O.2     1  UNL1       -0.2508
      7 O           3.9811   -0.9265    0.0000 O.2     1  UNL1       -0.2479
      8 O          10.7486   -4.0604    0.0000 O.2     1  UNL1       -0.4706
      9 O           3.3470    1.4397    0.0000 O.2     1  UNL1       -0.2505
     10 C           7.0348    0.7761    0.0000 C.3     1  UNL1        0.0396
     11 C           8.2558   -0.0895    0.0000 C.3     1  UNL1       -0.0071
     12 C           5.7631   -0.0185    0.0000 C.3     1  UNL1        0.0166
     13 C           4.9859    0.6108    0.0000 C.3     1  UNL1        0.0097
     14 C           9.0848    0.4697    0.0000 C.2     1  UNL1       -0.0644
     15 C          10.1086   -1.0110    0.0000 C.3     1  UNL1        0.0163
     16 C           6.7760    1.7420    0.0000 C.3     1  UNL1        0.0739
     17 C          10.0280    0.0275    0.0000 C.3     1  UNL1       -0.0005
     18 C           5.3443    1.5444    0.0000 C.3     1  UNL1        0.1214
     19 C           8.3124   -1.1296    0.0000 C.3     1  UNL1       -0.0450
     20 C           7.5126    2.7247    0.0000 C.2     1  UNL1        0.1504
     21 C           9.2451   -1.5935    0.0000 C.3     1  UNL1       -0.0428
     22 C           8.8092    1.4309    0.0000 C.2     1  UNL1       -0.0705
     23 C           6.7759   -0.1898    0.0000 C.3     1  UNL1       -0.0519
     24 C           5.7108   -1.0172    0.0000 C.3     1  UNL1        0.1558
     25 C          11.0801   -1.4941    0.0000 C.3     1  UNL1        0.1368
     26 C          10.9132    0.6549    0.0000 C.3     1  UNL1        0.0521
     27 C           4.0200    0.8696    0.0000 C.3     1  UNL1       -0.0560
     28 C           4.2788   -0.0963    0.0000 C.3     1  UNL1       -0.0560
     29 C          10.1861   -2.0080    0.0000 C.3     1  UNL1       -0.0553
     30 C          11.8956    0.1943    0.0000 C.2     1  UNL1        0.3083
     31 C          11.1460   -2.4919    0.0000 C.ar    1  UNL1        0.0310
     32 C           4.8198   -1.4711    0.0000 C.2     1  UNL1        0.3361
     33 C           3.8010    2.3307    0.0000 C.2     1  UNL1        0.3102
     34 C          11.9920   -3.0251    0.0000 C.ar    1  UNL1       -0.0172
     35 C          10.3775   -3.1318    0.0000 C.ar    1  UNL1        0.0984
     36 C           3.2564    3.1694    0.0000 C.3     1  UNL1        0.0534
     37 C          11.7464   -3.9945    0.0000 C.ar    1  UNL1        0.0921
     38 C           2.2578    3.1170    0.0000 C.3     1  UNL1       -0.0432
     39 C           3.7104    4.0604    0.0000 C.3     1  UNL1       -0.0523
     40 C           3.8764   -2.9238    0.0000 C.3     1  UNL1        0.0817
     41 C           1.7131    3.9557    0.0000 C.3     1  UNL1       -0.0645
     42 H           7.5511   -0.5649    0.0000 H       1  UNL1        0.0355
     43 H           4.9866   -0.3642    0.0000 H       1  UNL1        0.0347
     44 H           6.5560    2.5631    0.0000 H       1  UNL1        0.0457
     45 H           9.9523    0.8741    0.0000 H       1  UNL1        0.0357
     46 H           4.7277    1.4796    0.0000 H       1  UNL1        0.0749
     47 H           8.1354   -1.7238    0.0000 H       1  UNL1        0.0271
     48 H           7.6967   -1.0569    0.0000 H       1  UNL1        0.0271
     49 H           9.6746   -2.0406    0.0000 H       1  UNL1        0.0272
     50 H           8.8781   -2.0932    0.0000 H       1  UNL1        0.0272
     51 H           9.2188    1.8963    0.0000 H       1  UNL1        0.0580
     52 H           7.3748   -0.3503    0.0000 H       1  UNL1        0.0239
     53 H           6.6154   -0.7886    0.0000 H       1  UNL1        0.0239
     54 H           6.1770   -0.0293    0.0000 H       1  UNL1        0.0239
     55 H           5.6783   -1.6363    0.0000 H       1  UNL1        0.0713
     56 H          11.6369   -1.7670    0.0000 H       1  UNL1        0.0792
     57 H          10.4734    1.0919    0.0000 H       1  UNL1        0.0384
     58 H          11.2685    1.1629    0.0000 H       1  UNL1        0.0384
     59 H           3.8596    0.2707    0.0000 H       1  UNL1        0.0236
     60 H           3.4211    1.0301    0.0000 H       1  UNL1        0.0236
     61 H           4.1805    1.4685    0.0000 H       1  UNL1        0.0236
     62 H           4.7172   -0.5347    0.0000 H       1  UNL1        0.0236
     63 H           3.8404   -0.5347    0.0000 H       1  UNL1        0.0236
     64 H           3.8404    0.3421    0.0000 H       1  UNL1        0.0236
     65 H          10.8042   -1.9600    0.0000 H       1  UNL1        0.0237
     66 H          10.2341   -2.6261    0.0000 H       1  UNL1        0.0237
     67 H           9.5680   -2.0560    0.0000 H       1  UNL1        0.0237
     68 H           6.5170   -2.1809    0.0000 H       1  UNL1        0.2105
     69 H          12.5678   -2.7951    0.0000 H       1  UNL1        0.0653
     70 H           9.7765   -2.9795    0.0000 H       1  UNL1        0.1033
     71 H           3.8756    3.2018    0.0000 H       1  UNL1        0.0410
     72 H          12.1431   -4.4710    0.0000 H       1  UNL1        0.1029
     73 H           2.3972    2.5129    0.0000 H       1  UNL1        0.0270
     74 H           1.6871    2.8748    0.0000 H       1  UNL1        0.0270
     75 H           3.1580    4.3419    0.0000 H       1  UNL1        0.0238
     76 H           3.9919    4.6128    0.0000 H       1  UNL1        0.0238
     77 H           4.2628    3.7789    0.0000 H       1  UNL1        0.0238
     78 H           4.1579   -3.4762    0.0000 H       1  UNL1        0.0661
     79 H           3.3240   -3.2052    0.0000 H       1  UNL1        0.0661
     80 H           3.5949   -2.3713    0.0000 H       1  UNL1        0.0661
     81 H           1.1932    3.6180    0.0000 H       1  UNL1        0.0230
     82 H           1.3755    4.4757    0.0000 H       1  UNL1        0.0230
     83 H           2.2331    4.2934    0.0000 H       1  UNL1        0.0230
@<TRIPOS>BOND
     1    18     1    1
     2     1    33    1
     3     2    25    1
     4     2    30    1
     5     3    20    2
     6    24     4    1
     7     4    68    1
     8     5    32    1
     9     5    40    1
    10     6    30    2
    11     7    32    2
    12     8    35   ar
    13     8    37   ar
    14     9    33    2
    15    10    11    1
    16    10    12    1
    17    10    20    1
    18    10    23    1
    19    11    14    1
    20    11    19    1
    21    11    42    1
    22    12    13    1
    23    12    24    1
    24    12    43    1
    25    13    18    1
    26    13    27    1
    27    13    28    1
    28    14    17    1
    29    14    22    2
    30    15    17    1
    31    15    21    1
    32    15    25    1
    33    15    29    1
    34    16    18    1
    35    16    20    1
    36    16    22    1
    37    16    44    1
    38    17    26    1
    39    17    45    1
    40    18    46    1
    41    19    21    1
    42    19    47    1
    43    19    48    1
    44    21    49    1
    45    21    50    1
    46    22    51    1
    47    23    52    1
    48    23    53    1
    49    23    54    1
    50    24    32    1
    51    24    55    1
    52    25    31    1
    53    25    56    1
    54    26    30    1
    55    26    57    1
    56    26    58    1
    57    27    59    1
    58    27    60    1
    59    27    61    1
    60    28    62    1
    61    28    63    1
    62    28    64    1
    63    29    65    1
    64    29    66    1
    65    29    67    1
    66    31    34   ar
    67    31    35   ar
    68    33    36    1
    69    34    37   ar
    70    34    69    1
    71    35    70    1
    72    36    38    1
    73    36    39    1
    74    36    71    1
    75    37    72    1
    76    38    41    1
    77    38    73    1
    78    38    74    1
    79    39    75    1
    80    39    76    1
    81    39    77    1
    82    40    78    1
    83    40    79    1
    84    40    80    1
    85    41    81    1
    86    41    82    1
    87    41    83    1
