@<TRIPOS>MOLECULE
IMPHY015101
 93 99 0 0 0
SMALL
GASTEIGER

@<TRIPOS>ATOM
      1 O           8.2902    4.0403    0.0000 O.3     1  UNL1       -0.3448
      2 O           6.5177    4.9351    0.0000 O.3     1  UNL1       -0.3480
      3 O           6.8671   -4.2038    0.0000 O.3     1  UNL1       -0.3451
      4 O           5.1350   -4.2038    0.0000 O.3     1  UNL1       -0.3405
      5 O           6.8671   -6.2038    0.0000 O.3     1  UNL1       -0.3841
      6 O           5.1350   -7.2038    0.0000 O.3     1  UNL1       -0.3864
      7 O           3.4030   -6.2038    0.0000 O.3     1  UNL1       -0.3865
      8 O           2.5369   -4.7038    0.0000 O.3     1  UNL1       -0.3924
      9 C           6.8963    1.9931    0.0000 C.3     1  UNL1       -0.0233
     10 C           7.7643    1.4965    0.0000 C.3     1  UNL1       -0.0295
     11 C           7.1018    2.9657    0.0000 C.3     1  UNL1       -0.0015
     12 C           7.7681    0.4965    0.0000 C.3     1  UNL1       -0.0306
     13 C           8.0901    3.0726    0.0000 C.3     1  UNL1        0.0660
     14 C           6.9040   -0.0069    0.0000 C.3     1  UNL1       -0.0285
     15 C           8.4987    2.1664    0.0000 C.3     1  UNL1       -0.0226
     16 C           6.0322    1.4898    0.0000 C.3     1  UNL1       -0.0467
     17 C           6.6995    3.8683    0.0000 C.3     1  UNL1        0.0160
     18 C           6.0361    0.4898    0.0000 C.3     1  UNL1       -0.0486
     19 C           6.8920   -1.0484    0.0000 C.3     1  UNL1       -0.0078
     20 C           7.4324    4.5311    0.0000 C.3     1  UNL1        0.1732
     21 C           6.0284    2.4898    0.0000 C.3     1  UNL1       -0.0590
     22 C           8.6801   -0.0069    0.0000 C.3     1  UNL1       -0.0311
     23 C           7.7920   -1.5727    0.0000 C.2     1  UNL1       -0.0648
     24 C           5.9421   -1.5727    0.0000 C.3     1  UNL1       -0.0413
     25 C           5.7211    4.0750    0.0000 C.3     1  UNL1       -0.0572
     26 C           8.2397    5.1213    0.0000 C.3     1  UNL1        0.0020
     27 C           8.6921   -1.0484    0.0000 C.2     1  UNL1       -0.0839
     28 C           6.0279   -0.5451    0.0000 C.3     1  UNL1       -0.0556
     29 C           7.8046   -2.6576    0.0000 C.3     1  UNL1       -0.0047
     30 C           5.9295   -2.6576    0.0000 C.3     1  UNL1       -0.0254
     31 C           6.8671   -3.2038    0.0000 C.3     1  UNL1        0.0655
     32 C           8.1322    6.1155    0.0000 C.3     1  UNL1       -0.0435
     33 C           7.2174    6.5195    0.0000 C.3     1  UNL1       -0.0201
     34 C           6.4102    5.9293    0.0000 C.3     1  UNL1        0.0535
     35 C           7.1100    7.5138    0.0000 C.3     1  UNL1       -0.0603
     36 C           6.0010   -4.7038    0.0000 C.3     1  UNL1        0.1882
     37 C           6.0010   -5.7038    0.0000 C.3     1  UNL1        0.1341
     38 C           5.1350   -6.2038    0.0000 C.3     1  UNL1        0.1141
     39 C           4.2690   -4.7038    0.0000 C.3     1  UNL1        0.1130
     40 C           4.2690   -5.7038    0.0000 C.3     1  UNL1        0.1119
     41 C           3.4030   -4.2038    0.0000 C.3     1  UNL1        0.0730
     42 H           8.5426    1.1548    0.0000 H       1  UNL1        0.0310
     43 H           6.2565    2.8762    0.0000 H       1  UNL1        0.0335
     44 H           8.4993    0.9300    0.0000 H       1  UNL1        0.0310
     45 H           8.9350    3.1658    0.0000 H       1  UNL1        0.0600
     46 H           7.6385   -0.4347    0.0000 H       1  UNL1        0.0312
     47 H           8.8661    1.6670    0.0000 H       1  UNL1        0.0293
     48 H           9.0340    2.4792    0.0000 H       1  UNL1        0.0293
     49 H           5.8179    2.0716    0.0000 H       1  UNL1        0.0271
     50 H           5.4221    1.3798    0.0000 H       1  UNL1        0.0271
     51 H           6.3097    3.3862    0.0000 H       1  UNL1        0.0354
     52 H           5.4251    0.5951    0.0000 H       1  UNL1        0.0268
     53 H           5.8263   -0.0936    0.0000 H       1  UNL1        0.0268
     54 H           6.3363    3.0279    0.0000 H       1  UNL1        0.0235
     55 H           5.4902    2.7977    0.0000 H       1  UNL1        0.0235
     56 H           5.7204    1.9517    0.0000 H       1  UNL1        0.0235
     57 H           9.2921   -0.1059    0.0000 H       1  UNL1        0.0310
     58 H           8.8824    0.5792    0.0000 H       1  UNL1        0.0310
     59 H           5.7398   -0.9866    0.0000 H       1  UNL1        0.0274
     60 H           5.3300   -1.6717    0.0000 H       1  UNL1        0.0274
     61 H           5.8492    4.6816    0.0000 H       1  UNL1        0.0234
     62 H           5.1145    4.2032    0.0000 H       1  UNL1        0.0234
     63 H           5.5929    3.4684    0.0000 H       1  UNL1        0.0234
     64 H           8.5132    4.5649    0.0000 H       1  UNL1        0.0317
     65 H           8.8352    5.2940    0.0000 H       1  UNL1        0.0317
     66 H           9.2314   -1.3543    0.0000 H       1  UNL1        0.0572
     67 H           6.3400   -0.0093    0.0000 H       1  UNL1        0.0238
     68 H           5.4922   -0.2330    0.0000 H       1  UNL1        0.0238
     69 H           5.7158   -1.0808    0.0000 H       1  UNL1        0.0238
     70 H           8.0204   -3.2389    0.0000 H       1  UNL1        0.0335
     71 H           8.4142   -2.5445    0.0000 H       1  UNL1        0.0335
     72 H           5.3199   -2.5445    0.0000 H       1  UNL1        0.0290
     73 H           5.7137   -3.2389    0.0000 H       1  UNL1        0.0290
     74 H           7.4046   -3.5127    0.0000 H       1  UNL1        0.0600
     75 H           8.7508    6.0741    0.0000 H       1  UNL1        0.0270
     76 H           8.2804    6.7176    0.0000 H       1  UNL1        0.0270
     77 H           7.7180    6.8855    0.0000 H       1  UNL1        0.0320
     78 H           6.1367    6.4858    0.0000 H       1  UNL1        0.0563
     79 H           5.8147    5.7567    0.0000 H       1  UNL1        0.0563
     80 H           7.7264    7.5804    0.0000 H       1  UNL1        0.0233
     81 H           7.0433    8.1302    0.0000 H       1  UNL1        0.0233
     82 H           6.4935    7.4471    0.0000 H       1  UNL1        0.0233
     83 H           6.0010   -4.0838    0.0000 H       1  UNL1        0.0937
     84 H           6.0010   -6.3238    0.0000 H       1  UNL1        0.0671
     85 H           4.5981   -6.5138    0.0000 H       1  UNL1        0.0648
     86 H           4.2690   -4.0838    0.0000 H       1  UNL1        0.0647
     87 H           4.2690   -6.3238    0.0000 H       1  UNL1        0.0647
     88 H           6.8671   -6.8238    0.0000 H       1  UNL1        0.2101
     89 H           3.8015   -3.7288    0.0000 H       1  UNL1        0.0584
     90 H           3.0044   -3.7288    0.0000 H       1  UNL1        0.0584
     91 H           4.5981   -7.5138    0.0000 H       1  UNL1        0.2100
     92 H           3.4030   -6.8238    0.0000 H       1  UNL1        0.2100
     93 H           2.0000   -4.3938    0.0000 H       1  UNL1        0.2095
@<TRIPOS>BOND
     1     1    13    1
     2    20     1    1
     3     2    20    1
     4     2    34    1
     5    31     3    1
     6    36     3    1
     7     4    36    1
     8     4    39    1
     9    37     5    1
    10     5    88    1
    11    38     6    1
    12     6    91    1
    13    40     7    1
    14     7    92    1
    15     8    41    1
    16     8    93    1
    17     9    10    1
    18     9    11    1
    19     9    16    1
    20     9    21    1
    21    10    12    1
    22    10    15    1
    23    10    42    1
    24    11    13    1
    25    11    17    1
    26    11    43    1
    27    12    14    1
    28    12    22    1
    29    12    44    1
    30    13    15    1
    31    13    45    1
    32    14    18    1
    33    14    19    1
    34    14    46    1
    35    15    47    1
    36    15    48    1
    37    16    18    1
    38    16    49    1
    39    16    50    1
    40    17    20    1
    41    17    25    1
    42    17    51    1
    43    18    52    1
    44    18    53    1
    45    19    23    1
    46    19    24    1
    47    19    28    1
    48    20    26    1
    49    21    54    1
    50    21    55    1
    51    21    56    1
    52    22    27    1
    53    22    57    1
    54    22    58    1
    55    23    27    2
    56    23    29    1
    57    24    30    1
    58    24    59    1
    59    24    60    1
    60    25    61    1
    61    25    62    1
    62    25    63    1
    63    26    32    1
    64    26    64    1
    65    26    65    1
    66    27    66    1
    67    28    67    1
    68    28    68    1
    69    28    69    1
    70    29    31    1
    71    29    70    1
    72    29    71    1
    73    30    31    1
    74    30    72    1
    75    30    73    1
    76    31    74    1
    77    32    33    1
    78    32    75    1
    79    32    76    1
    80    33    34    1
    81    33    35    1
    82    33    77    1
    83    34    78    1
    84    34    79    1
    85    35    80    1
    86    35    81    1
    87    35    82    1
    88    36    37    1
    89    36    83    1
    90    37    38    1
    91    37    84    1
    92    38    40    1
    93    38    85    1
    94    39    40    1
    95    39    41    1
    96    39    86    1
    97    40    87    1
    98    41    89    1
    99    41    90    1
