@<TRIPOS>MOLECULE
IMPHY010622
 20 20 0 0 0
SMALL
GASTEIGER

@<TRIPOS>ATOM
      1 C           6.1024   -8.0583    0.0000 C.2     1  UNL1        0.0018
      2 C           6.4936   -6.7891    0.0000 C.2     1  UNL1        0.0535
      3 C           5.5895   -5.8155    0.0000 C.3     1  UNL1        0.0103
      4 H           5.1983   -7.0847    0.0000 H       1  UNL1        0.0366
      5 C           6.6240   -4.9810    0.0000 C.3     1  UNL1        0.0006
      6 C           6.6240   -3.6510    0.0000 C.3     1  UNL1       -0.0002
      7 C           5.5895   -2.8252    0.0000 C.3     1  UNL1       -0.0041
      8 H           6.4936   -1.8516    0.0000 H       1  UNL1        0.0358
      9 C           5.1983   -1.5560    0.0000 C.3     1  UNL1       -0.0002
     10 C           4.2856   -3.1207    0.0000 C.2     1  UNL1       -0.0523
     11 C           3.4598   -2.0776    0.0000 C.3     1  UNL1        0.0291
     12 C           2.1471   -2.2775    0.0000 C.3     1  UNL1        0.0688
     13 C           1.3126   -1.2344    0.0000 C.2     1  UNL1        0.1514
     14 C           1.7994    0.0000    0.0000 C.3     1  UNL1        0.0723
     15 O           0.0000   -1.4343    0.0000 O.2     1  UNL1       -0.2960
     16 C           3.7118   -4.3203    0.0000 C.2     1  UNL1       -0.0349
     17 C           4.2856   -5.5200    0.0000 C.3     1  UNL1        0.0257
     18 C           7.7888   -6.4936    0.0000 C.2     1  UNL1        0.3835
     19 O           8.6929   -7.4672    0.0000 O.co2   1  UNL1       -0.2409
     20 O           8.1800   -5.2157    0.0000 O.co2   1  UNL1       -0.2409
@<TRIPOS>BOND
     1     1     2    2
     2     2     3    1
     3     2    18    1
     4     3     4    1
     5     3     5    1
     6     3    17    1
     7     5     6    1
     8     6     7    1
     9     7     8    1
    10     7     9    1
    11     7    10    1
    12    10    11    1
    13    10    16    2
    14    11    12    1
    15    12    13    1
    16    13    14    1
    17    13    15    2
    18    16    17    1
    19    18    19   ar
    20    18    20   ar
