@<TRIPOS>MOLECULE
IMPHY009599
 58 60 0 0 0
SMALL
GASTEIGER

@<TRIPOS>ATOM
      1 CL          8.5991    0.6550    0.0000 Cl      1  UNL1       -0.0794
      2 CL         12.0632    0.6550    0.0000 Cl      1  UNL1       -0.0758
      3 CL         10.3312    3.6550    0.0000 Cl      1  UNL1       -0.0794
      4 O           8.5991   -0.3450    0.0000 O.3     1  UNL1       -0.3313
      5 O           6.0010   -0.8450    0.0000 O.3     1  UNL1       -0.3461
      6 O           4.2690   -0.8450    0.0000 O.3     1  UNL1       -0.3461
      7 O           6.8671   -2.3450    0.0000 O.3     1  UNL1       -0.3865
      8 O           8.5991   -3.3450    0.0000 O.3     1  UNL1       -0.3864
      9 O          10.3312   -0.3450    0.0000 O.3     1  UNL1       -0.4578
     10 O          10.3312   -2.3450    0.0000 O.3     1  UNL1       -0.3829
     11 O           6.0010    1.1550    0.0000 O.3     1  UNL1       -0.3841
     12 O           4.2690    2.1550    0.0000 O.3     1  UNL1       -0.3864
     13 O           2.5369    1.1550    0.0000 O.3     1  UNL1       -0.3869
     14 O          12.0632    2.6550    0.0000 O.3     1  UNL1       -0.4920
     15 C           7.7331   -0.8450    0.0000 C.3     1  UNL1        0.1144
     16 C           7.7331   -1.8450    0.0000 C.3     1  UNL1        0.1120
     17 C           8.5991   -2.3450    0.0000 C.3     1  UNL1        0.1152
     18 C           9.4651   -1.8450    0.0000 C.3     1  UNL1        0.1454
     19 C           9.4651   -0.8450    0.0000 C.3     1  UNL1        0.2309
     20 C           6.8671   -0.3450    0.0000 C.3     1  UNL1        0.0796
     21 C           5.1350   -0.3450    0.0000 C.3     1  UNL1        0.1876
     22 C           5.1350    0.6550    0.0000 C.3     1  UNL1        0.1341
     23 C           4.2690    1.1550    0.0000 C.3     1  UNL1        0.1137
     24 C           3.4030    0.6550    0.0000 C.3     1  UNL1        0.1069
     25 C           3.4030   -0.3450    0.0000 C.3     1  UNL1        0.0792
     26 C          10.3312    0.6550    0.0000 C.ar    1  UNL1        0.1643
     27 C           9.4651    1.1550    0.0000 C.ar    1  UNL1        0.0886
     28 C          11.1972    1.1550    0.0000 C.ar    1  UNL1        0.1270
     29 C           9.4651    2.1550    0.0000 C.ar    1  UNL1       -0.0066
     30 C          11.1972    2.1550    0.0000 C.ar    1  UNL1        0.1604
     31 C          10.3312    2.6550    0.0000 C.ar    1  UNL1        0.0885
     32 C           8.5991    2.6550    0.0000 C.3     1  UNL1       -0.0367
     33 C          12.0632    3.6550    0.0000 C.3     1  UNL1        0.0789
     34 H           7.7331   -0.2250    0.0000 H       1  UNL1        0.0647
     35 H           7.7331   -2.4650    0.0000 H       1  UNL1        0.0647
     36 H           9.1360   -2.6550    0.0000 H       1  UNL1        0.0648
     37 H          10.0021   -1.5350    0.0000 H       1  UNL1        0.0683
     38 H           9.4651   -0.2250    0.0000 H       1  UNL1        0.1084
     39 H           7.2656    0.1299    0.0000 H       1  UNL1        0.0587
     40 H           6.4685    0.1299    0.0000 H       1  UNL1        0.0587
     41 H           5.6720   -0.0350    0.0000 H       1  UNL1        0.0937
     42 H           5.1350    1.2750    0.0000 H       1  UNL1        0.0671
     43 H           3.7320    1.4650    0.0000 H       1  UNL1        0.0647
     44 H           2.8660    0.3450    0.0000 H       1  UNL1        0.0643
     45 H           2.7924   -0.2373    0.0000 H       1  UNL1        0.0587
     46 H           3.1909   -0.9276    0.0000 H       1  UNL1        0.0587
     47 H           6.8671   -2.9650    0.0000 H       1  UNL1        0.2100
     48 H           8.0622   -3.6550    0.0000 H       1  UNL1        0.2100
     49 H          10.3312   -2.9650    0.0000 H       1  UNL1        0.2102
     50 H           6.0010    1.7750    0.0000 H       1  UNL1        0.2101
     51 H           3.7320    2.4650    0.0000 H       1  UNL1        0.2100
     52 H           2.0000    0.8450    0.0000 H       1  UNL1        0.2100
     53 H           8.9091    3.1919    0.0000 H       1  UNL1        0.0278
     54 H           8.0622    2.9650    0.0000 H       1  UNL1        0.0278
     55 H           8.2891    2.1181    0.0000 H       1  UNL1        0.0278
     56 H          12.6832    3.6550    0.0000 H       1  UNL1        0.0660
     57 H          12.0632    4.2750    0.0000 H       1  UNL1        0.0660
     58 H          11.4432    3.6550    0.0000 H       1  UNL1        0.0660
@<TRIPOS>BOND
     1     1    27    1
     2     2    28    1
     3     3    31    1
     4     4    15    1
     5     4    19    1
     6     5    20    1
     7    21     5    1
     8     6    21    1
     9     6    25    1
    10    16     7    1
    11     7    47    1
    12    17     8    1
    13     8    48    1
    14    19     9    1
    15     9    26    1
    16    18    10    1
    17    10    49    1
    18    22    11    1
    19    11    50    1
    20    23    12    1
    21    12    51    1
    22    24    13    1
    23    13    52    1
    24    14    30    1
    25    14    33    1
    26    15    16    1
    27    15    20    1
    28    15    34    1
    29    16    17    1
    30    16    35    1
    31    17    18    1
    32    17    36    1
    33    18    19    1
    34    18    37    1
    35    19    38    1
    36    20    39    1
    37    20    40    1
    38    21    22    1
    39    21    41    1
    40    22    23    1
    41    22    42    1
    42    23    24    1
    43    23    43    1
    44    24    25    1
    45    24    44    1
    46    25    45    1
    47    25    46    1
    48    26    27   ar
    49    26    28   ar
    50    27    29   ar
    51    28    30   ar
    52    29    31   ar
    53    29    32    1
    54    30    31   ar
    55    32    53    1
    56    32    54    1
    57    32    55    1
    58    33    56    1
    59    33    57    1
    60    33    58    1
