@<TRIPOS>MOLECULE
IMPHY014431
 81 84 0 0 0
SMALL
GASTEIGER

@<TRIPOS>ATOM
      1 NA         12.3307   -0.0001    0.0000 Na      1  UNL1        0.0000
      2 O           2.5357   -2.5933    0.0000 O.3     2  UNL2        0.0000
      3 O          11.4608    0.4932    0.0000 O.co2   2  UNL2       -0.5000
      4 O          10.6064   -1.0134    0.0000 O.co2   2  UNL2       -0.5000
      5 C           7.0628   -1.0410    0.0000 C.3     2  UNL2        0.0000
      6 C           6.1968   -0.5410    0.0000 C.3     2  UNL2        0.0000
      7 C           5.2868   -1.0478    0.0000 C.3     2  UNL2        0.0000
      8 C           7.9288   -0.5410    0.0000 C.3     2  UNL2        0.0000
      9 C           5.2787   -2.0894    0.0000 C.3     2  UNL2        0.0000
     10 C           7.0789   -2.0825    0.0000 C.3     2  UNL2        0.0000
     11 C           7.9288    0.4590    0.0000 C.2     2  UNL2        0.0000
     12 C           6.1808   -2.6102    0.0000 C.3     2  UNL2        0.0000
     13 C           4.3433   -2.6391    0.0000 C.3     2  UNL2        0.0000
     14 C           8.8228    0.9937    0.0000 C.3     2  UNL2        0.0000
     15 C           6.1968    0.4590    0.0000 C.3     2  UNL2        0.0000
     16 C           8.8228   -1.0756    0.0000 C.3     2  UNL2        0.0000
     17 C           4.3599   -0.4837    0.0000 C.3     2  UNL2        0.0000
     18 C           9.7288    0.4799    0.0000 C.3     2  UNL2        0.0000
     19 C           7.7056   -1.8070    0.0000 C.3     2  UNL2        0.0000
     20 C           9.7288   -0.5618    0.0000 C.3     2  UNL2        0.0000
     21 C           3.4037   -2.0966    0.0000 C.3     2  UNL2        0.0000
     22 C           7.0628    0.9590    0.0000 C.2     2  UNL2        0.0000
     23 C           5.2945   -0.0478    0.0000 C.3     2  UNL2        0.0000
     24 C           3.4120   -1.0117    0.0000 C.3     2  UNL2        0.0000
     25 C           8.2709   -1.4806    0.0000 C.3     2  UNL2        0.0000
     26 C           8.7977    2.0784    0.0000 C.3     2  UNL2        0.0000
     27 C          10.6726    1.0151    0.0000 C.3     2  UNL2        0.0000
     28 C           9.7288    2.6353    0.0000 C.3     2  UNL2        0.0000
     29 C           3.8467   -3.5071    0.0000 C.3     2  UNL2        0.0000
     30 C           4.8466   -3.5032    0.0000 C.3     2  UNL2        0.0000
     31 C          10.6726    2.1001    0.0000 C.3     2  UNL2        0.0000
     32 C          10.5987   -0.0135    0.0000 C.2     2  UNL2        0.0000
     33 C          10.2188    3.5071    0.0000 C.3     2  UNL2        0.0000
     34 C           9.2188    3.4955    0.0000 C.3     2  UNL2        0.0000
     35 H           6.9329   -0.1160    0.0000 H       2  UNL2        0.0000
     36 H           5.2820   -2.9394    0.0000 H       2  UNL2        0.0000
     37 H           7.2969   -2.6629    0.0000 H       2  UNL2        0.0000
     38 H           7.6880   -1.9670    0.0000 H       2  UNL2        0.0000
     39 H           5.7835   -3.0862    0.0000 H       2  UNL2        0.0000
     40 H           6.5818   -3.0831    0.0000 H       2  UNL2        0.0000
     41 H           9.5522    1.4300    0.0000 H       2  UNL2        0.0000
     42 H           5.9847    1.0416    0.0000 H       2  UNL2        0.0000
     43 H           5.5862    0.3514    0.0000 H       2  UNL2        0.0000
     44 H           8.4182   -1.5454    0.0000 H       2  UNL2        0.0000
     45 H           9.2164   -1.5546    0.0000 H       2  UNL2        0.0000
     46 H           4.7681   -0.0171    0.0000 H       2  UNL2        0.0000
     47 H           3.9700   -0.0017    0.0000 H       2  UNL2        0.0000
     48 H           7.2306   -2.2055    0.0000 H       2  UNL2        0.0000
     49 H           8.1041   -2.2820    0.0000 H       2  UNL2        0.0000
     50 H           8.1805   -1.4085    0.0000 H       2  UNL2        0.0000
     51 H           9.9379   -1.1455    0.0000 H       2  UNL2        0.0000
     52 H          10.3397   -0.4557    0.0000 H       2  UNL2        0.0000
     53 H           3.4025   -2.7166    0.0000 H       2  UNL2        0.0000
     54 H           7.0628    1.5790    0.0000 H       2  UNL2        0.0000
     55 H           5.9145   -0.0526    0.0000 H       2  UNL2        0.0000
     56 H           5.2993    0.5721    0.0000 H       2  UNL2        0.0000
     57 H           4.6745   -0.0431    0.0000 H       2  UNL2        0.0000
     58 H           3.2075   -0.4264    0.0000 H       2  UNL2        0.0000
     59 H           2.8004   -1.1131    0.0000 H       2  UNL2        0.0000
     60 H           7.6884   -1.6927    0.0000 H       2  UNL2        0.0000
     61 H           8.4830   -2.0632    0.0000 H       2  UNL2        0.0000
     62 H           8.8535   -1.2685    0.0000 H       2  UNL2        0.0000
     63 H           8.5752    2.6571    0.0000 H       2  UNL2        0.0000
     64 H           8.1894    1.9582    0.0000 H       2  UNL2        0.0000
     65 H          10.8817    0.4314    0.0000 H       2  UNL2        0.0000
     66 H          11.2835    1.1212    0.0000 H       2  UNL2        0.0000
     67 H           3.3085   -3.1992    0.0000 H       2  UNL2        0.0000
     68 H           3.5387   -4.0452    0.0000 H       2  UNL2        0.0000
     69 H           4.3848   -3.8150    0.0000 H       2  UNL2        0.0000
     70 H           4.3109   -3.8153    0.0000 H       2  UNL2        0.0000
     71 H           5.1587   -4.0390    0.0000 H       2  UNL2        0.0000
     72 H           5.3824   -3.1912    0.0000 H       2  UNL2        0.0000
     73 H          11.2835    1.9940    0.0000 H       2  UNL2        0.0000
     74 H          10.8817    2.6838    0.0000 H       2  UNL2        0.0000
     75 H          10.7593    3.2033    0.0000 H       2  UNL2        0.0000
     76 H          10.5226    4.0476    0.0000 H       2  UNL2        0.0000
     77 H           9.6783    3.8108    0.0000 H       2  UNL2        0.0000
     78 H           9.7522    3.8117    0.0000 H       2  UNL2        0.0000
     79 H           8.9027    4.0288    0.0000 H       2  UNL2        0.0000
     80 H           8.6855    3.1793    0.0000 H       2  UNL2        0.0000
     81 H           2.0000   -2.2812    0.0000 H       2  UNL2        0.0000
@<TRIPOS>UNITY_ATOM_ATTR
1 1
charge 1
3 1
charge -1
@<TRIPOS>BOND
     1    21     2    1
     2     2    81    1
     3     3    32   ar
     4     4    32   ar
     5     5     6    1
     6     5     8    1
     7     5    10    1
     8     5    19    1
     9     6     7    1
    10     6    15    1
    11     6    35    1
    12     7     9    1
    13     7    17    1
    14     7    23    1
    15     8    11    1
    16     8    16    1
    17     8    25    1
    18     9    12    1
    19     9    13    1
    20     9    36    1
    21    10    12    1
    22    10    37    1
    23    10    38    1
    24    11    14    1
    25    11    22    2
    26    12    39    1
    27    12    40    1
    28    13    21    1
    29    13    29    1
    30    13    30    1
    31    14    18    1
    32    14    26    1
    33    14    41    1
    34    15    22    1
    35    15    42    1
    36    15    43    1
    37    16    20    1
    38    16    44    1
    39    16    45    1
    40    17    24    1
    41    17    46    1
    42    17    47    1
    43    18    20    1
    44    18    27    1
    45    18    32    1
    46    19    48    1
    47    19    49    1
    48    19    50    1
    49    20    51    1
    50    20    52    1
    51    21    24    1
    52    21    53    1
    53    22    54    1
    54    23    55    1
    55    23    56    1
    56    23    57    1
    57    24    58    1
    58    24    59    1
    59    25    60    1
    60    25    61    1
    61    25    62    1
    62    26    28    1
    63    26    63    1
    64    26    64    1
    65    27    31    1
    66    27    65    1
    67    27    66    1
    68    28    31    1
    69    28    33    1
    70    28    34    1
    71    29    67    1
    72    29    68    1
    73    29    69    1
    74    30    70    1
    75    30    71    1
    76    30    72    1
    77    31    73    1
    78    31    74    1
    79    33    75    1
    80    33    76    1
    81    33    77    1
    82    34    78    1
    83    34    79    1
    84    34    80    1
