@<TRIPOS>MOLECULE
IMPHY001927
 53 55 0 0 0
SMALL
GASTEIGER

@<TRIPOS>ATOM
      1 O           8.0712   -0.8671    0.0000 O.3     1  UNL1       -0.4572
      2 O           3.7320    1.7449    0.0000 O.3     1  UNL1       -0.4610
      3 O           8.3500   -2.6271    0.0000 O.2     1  UNL1       -0.2508
      4 O           2.8602    0.2482    0.0000 O.2     1  UNL1       -0.2512
      5 C           6.3961    0.2207    0.0000 C.3     1  UNL1        0.0116
      6 C           6.3961    1.2207    0.0000 C.3     1  UNL1       -0.0235
      7 C           7.2622   -0.2793    0.0000 C.3     1  UNL1        0.1221
      8 C           5.5022    1.7554    0.0000 C.3     1  UNL1        0.0056
      9 C           8.1282    0.2207    0.0000 C.3     1  UNL1       -0.0033
     10 C           5.5022   -0.3139    0.0000 C.3     1  UNL1       -0.0403
     11 C           7.2622    1.7207    0.0000 C.3     1  UNL1       -0.0486
     12 C           4.5961    1.2415    0.0000 C.3     1  UNL1        0.1084
     13 C           8.1282    1.2207    0.0000 C.3     1  UNL1       -0.0465
     14 C           4.5961    0.1999    0.0000 C.3     1  UNL1       -0.0145
     15 C           6.4532   -0.8671    0.0000 C.3     1  UNL1       -0.0020
     16 C           5.8963   -0.6454    0.0000 C.3     1  UNL1       -0.0556
     17 C           5.0122    2.6271    0.0000 C.3     1  UNL1       -0.0562
     18 C           6.0122    2.6156    0.0000 C.3     1  UNL1       -0.0562
     19 C           6.7622   -1.8181    0.0000 C.3     1  UNL1        0.0486
     20 C           8.9942   -0.2793    0.0000 C.3     1  UNL1       -0.0588
     21 C           7.7622   -1.8181    0.0000 C.2     1  UNL1        0.3078
     22 C           2.8641    1.2482    0.0000 C.2     1  UNL1        0.3042
     23 C           2.0000    1.7516    0.0000 C.3     1  UNL1        0.0332
     24 H           6.4027    2.0707    0.0000 H       1  UNL1        0.0314
     25 H           8.1282   -0.3993    0.0000 H       1  UNL1        0.0337
     26 H           5.1086   -0.7930    0.0000 H       1  UNL1        0.0273
     27 H           5.9068   -0.7837    0.0000 H       1  UNL1        0.0273
     28 H           7.6607    2.1957    0.0000 H       1  UNL1        0.0268
     29 H           6.8636    2.1957    0.0000 H       1  UNL1        0.0268
     30 H           4.5997    1.8615    0.0000 H       1  UNL1        0.0739
     31 H           8.7388    1.1131    0.0000 H       1  UNL1        0.0269
     32 H           8.3402    1.8033    0.0000 H       1  UNL1        0.0269
     33 H           3.9853    0.3060    0.0000 H       1  UNL1        0.0301
     34 H           4.3871   -0.3838    0.0000 H       1  UNL1        0.0301
     35 H           6.1432   -0.3301    0.0000 H       1  UNL1        0.0309
     36 H           5.8868   -1.1192    0.0000 H       1  UNL1        0.0309
     37 H           5.3593   -0.3355    0.0000 H       1  UNL1        0.0236
     38 H           5.5864   -1.1824    0.0000 H       1  UNL1        0.0236
     39 H           6.4333   -0.9553    0.0000 H       1  UNL1        0.0236
     40 H           5.5527    2.9309    0.0000 H       1  UNL1        0.0236
     41 H           4.7085    3.1676    0.0000 H       1  UNL1        0.0236
     42 H           4.4718    2.3234    0.0000 H       1  UNL1        0.0236
     43 H           6.5455    2.2994    0.0000 H       1  UNL1        0.0236
     44 H           6.3284    3.1489    0.0000 H       1  UNL1        0.0236
     45 H           5.4789    2.9318    0.0000 H       1  UNL1        0.0236
     46 H           6.1557   -1.9470    0.0000 H       1  UNL1        0.0379
     47 H           6.8270   -2.4347    0.0000 H       1  UNL1        0.0379
     48 H           8.6842   -0.8162    0.0000 H       1  UNL1        0.0234
     49 H           9.5312   -0.5893    0.0000 H       1  UNL1        0.0234
     50 H           9.3042    0.2577    0.0000 H       1  UNL1        0.0234
     51 H           2.3121    2.2873    0.0000 H       1  UNL1        0.0342
     52 H           1.4643    2.0636    0.0000 H       1  UNL1        0.0342
     53 H           1.6879    1.2158    0.0000 H       1  UNL1        0.0342
@<TRIPOS>BOND
     1     7     1    1
     2     1    21    1
     3    12     2    1
     4     2    22    1
     5     3    21    2
     6     4    22    2
     7     5     6    1
     8     5     7    1
     9     5    10    1
    10     5    16    1
    11     6     8    1
    12     6    11    1
    13     6    24    1
    14     7     9    1
    15     7    15    1
    16     8    12    1
    17     8    17    1
    18     8    18    1
    19     9    13    1
    20     9    20    1
    21     9    25    1
    22    10    14    1
    23    10    26    1
    24    10    27    1
    25    11    13    1
    26    11    28    1
    27    11    29    1
    28    12    14    1
    29    12    30    1
    30    13    31    1
    31    13    32    1
    32    14    33    1
    33    14    34    1
    34    15    19    1
    35    15    35    1
    36    15    36    1
    37    16    37    1
    38    16    38    1
    39    16    39    1
    40    17    40    1
    41    17    41    1
    42    17    42    1
    43    18    43    1
    44    18    44    1
    45    18    45    1
    46    19    21    1
    47    19    46    1
    48    19    47    1
    49    20    48    1
    50    20    49    1
    51    20    50    1
    52    22    23    1
    53    23    51    1
    54    23    52    1
    55    23    53    1
