@<TRIPOS>MOLECULE
IMPHY008464
 42 43 0 0 0
SMALL
GASTEIGER

@<TRIPOS>ATOM
      1 O           2.8660   -0.5950    0.0000 O.3     1  UNL1       -0.4905
      2 O           2.8660   -2.5950    0.0000 O.3     1  UNL1       -0.4884
      3 O           6.3301   -2.5950    0.0000 O.3     1  UNL1       -0.4884
      4 O           6.3301   -0.5950    0.0000 O.3     1  UNL1       -0.5027
      5 O           4.5981   -3.5950    0.0000 O.3     1  UNL1       -0.5007
      6 O           3.7320    0.9050    0.0000 O.2     1  UNL1       -0.2870
      7 C           4.5981   -0.5950    0.0000 C.ar    1  UNL1        0.1120
      8 C           3.7320   -1.0950    0.0000 C.ar    1  UNL1        0.1798
      9 C           5.4641   -1.0950    0.0000 C.ar    1  UNL1        0.1770
     10 C           3.7320   -2.0950    0.0000 C.ar    1  UNL1        0.2080
     11 C           5.4641   -2.0950    0.0000 C.ar    1  UNL1        0.2078
     12 C           4.5981   -2.5950    0.0000 C.ar    1  UNL1        0.2085
     13 C           4.5981    0.4050    0.0000 C.2     1  UNL1        0.1934
     14 C           5.4641    0.9050    0.0000 C.2     1  UNL1       -0.0135
     15 C           5.4641    1.9050    0.0000 C.2     1  UNL1       -0.0510
     16 C           6.3301    2.4050    0.0000 C.ar    1  UNL1       -0.0249
     17 C           2.0000   -1.0950    0.0000 C.3     1  UNL1        0.0790
     18 C           2.8660   -3.5950    0.0000 C.3     1  UNL1        0.0791
     19 C           6.3301   -3.5950    0.0000 C.3     1  UNL1        0.0791
     20 C           7.1962    1.9050    0.0000 C.ar    1  UNL1       -0.0546
     21 C           6.3301    3.4050    0.0000 C.ar    1  UNL1       -0.0546
     22 C           8.0622    2.4050    0.0000 C.ar    1  UNL1       -0.0612
     23 C           7.1962    3.9050    0.0000 C.ar    1  UNL1       -0.0612
     24 C           8.0622    3.4050    0.0000 C.ar    1  UNL1       -0.0617
     25 H           6.0010    0.5950    0.0000 H       1  UNL1        0.0656
     26 H           4.9272    2.2150    0.0000 H       1  UNL1        0.0625
     27 H           6.8671   -0.9050    0.0000 H       1  UNL1        0.2923
     28 H           5.1350   -3.9050    0.0000 H       1  UNL1        0.2924
     29 H           1.6900   -0.5581    0.0000 H       1  UNL1        0.0660
     30 H           1.4631   -1.4050    0.0000 H       1  UNL1        0.0660
     31 H           2.3100   -1.6319    0.0000 H       1  UNL1        0.0660
     32 H           2.2460   -3.5950    0.0000 H       1  UNL1        0.0660
     33 H           2.8660   -4.2150    0.0000 H       1  UNL1        0.0660
     34 H           3.4860   -3.5950    0.0000 H       1  UNL1        0.0660
     35 H           7.1962    1.2850    0.0000 H       1  UNL1        0.0623
     36 H           5.7932    3.7150    0.0000 H       1  UNL1        0.0623
     37 H           5.7101   -3.5950    0.0000 H       1  UNL1        0.0660
     38 H           6.3301   -4.2150    0.0000 H       1  UNL1        0.0660
     39 H           6.9501   -3.5950    0.0000 H       1  UNL1        0.0660
     40 H           8.5991    2.0950    0.0000 H       1  UNL1        0.0618
     41 H           7.1962    4.5250    0.0000 H       1  UNL1        0.0618
     42 H           8.5991    3.7150    0.0000 H       1  UNL1        0.0618
@<TRIPOS>BOND
     1     1     8    1
     2     1    17    1
     3     2    10    1
     4     2    18    1
     5     3    11    1
     6     3    19    1
     7     4     9    1
     8     4    27    1
     9     5    12    1
    10     5    28    1
    11     6    13    2
    12     7     8   ar
    13     7     9   ar
    14     7    13    1
    15     8    10   ar
    16     9    11   ar
    17    10    12   ar
    18    11    12   ar
    19    13    14    1
    20    14    15    2
    21    14    25    1
    22    15    16    1
    23    15    26    1
    24    16    20   ar
    25    16    21   ar
    26    17    29    1
    27    17    30    1
    28    17    31    1
    29    18    32    1
    30    18    33    1
    31    18    34    1
    32    19    37    1
    33    19    38    1
    34    19    39    1
    35    20    22   ar
    36    20    35    1
    37    21    23   ar
    38    21    36    1
    39    22    24   ar
    40    22    40    1
    41    23    24   ar
    42    23    41    1
    43    24    42    1
