@<TRIPOS>MOLECULE
IMPHY000420
 80 86 0 0 0
SMALL
GASTEIGER

@<TRIPOS>ATOM
      1 O           9.3546   -2.4914    0.0000 O.3     1  UNL1       -0.3912
      2 O           3.4158   -1.5896    0.0000 O.2     1  UNL1       -0.4933
      3 O          12.0801    2.1876    0.0000 O.3     1  UNL1       -0.3912
      4 O           2.0000    0.4383    0.0000 O.3     1  UNL1       -0.3615
      5 C           7.6062   -1.4568    0.0000 C.3     1  UNL1       -0.0145
      6 C           6.7402   -0.9568    0.0000 C.3     1  UNL1       -0.0158
      7 C           6.7399   -1.9572    0.0000 C.3     1  UNL1       -0.0395
      8 C           8.4722   -0.9568    0.0000 C.3     1  UNL1        0.0034
      9 C           6.0032   -1.6239    0.0000 C.3     1  UNL1       -0.0104
     10 C           8.4722    0.0432    0.0000 C.3     1  UNL1       -0.0271
     11 C           7.3970   -2.4286    0.0000 C.3     1  UNL1       -0.0457
     12 C           6.7402    0.0432    0.0000 C.3     1  UNL1       -0.0460
     13 C           6.4083   -2.5317    0.0000 C.3     1  UNL1       -0.0453
     14 C           7.6062    0.5432    0.0000 C.3     1  UNL1       -0.0486
     15 C           9.3662    0.5779    0.0000 C.3     1  UNL1       -0.0251
     16 C           9.3662   -1.4915    0.0000 C.3     1  UNL1        0.0617
     17 C          10.2722    0.0640    0.0000 C.3     1  UNL1       -0.0255
     18 C           8.4722   -1.9568    0.0000 C.3     1  UNL1       -0.0564
     19 C          10.2722   -0.9776    0.0000 C.3     1  UNL1       -0.0224
     20 C           5.0247   -1.4177    0.0000 C.2     1  UNL1       -0.0282
     21 C           9.3411    1.6626    0.0000 C.3     1  UNL1       -0.0447
     22 C          11.2160    0.5993    0.0000 C.3     1  UNL1       -0.0055
     23 C           8.4963    1.0712    0.0000 C.3     1  UNL1       -0.0590
     24 C          10.2722    2.2195    0.0000 C.3     1  UNL1       -0.0258
     25 C          11.2160    1.6842    0.0000 C.3     1  UNL1        0.0606
     26 C           4.6163   -0.5048    0.0000 C.3     1  UNL1        0.0114
     27 C           4.2827   -2.0881    0.0000 C.2     1  UNL1        0.0847
     28 C          12.2160    0.5954    0.0000 C.3     1  UNL1       -0.0572
     29 C          11.7127   -0.2687    0.0000 C.3     1  UNL1       -0.0572
     30 C           3.6220   -0.6111    0.0000 C.3     1  UNL1        0.1318
     31 C           2.9516    0.1309    0.0000 C.3     1  UNL1        0.1247
     32 C           2.7420    1.1087    0.0000 C.3     1  UNL1        0.0941
     33 C           2.0716    1.8507    0.0000 C.3     1  UNL1       -0.0335
     34 C           3.7198    1.3183    0.0000 C.3     1  UNL1       -0.0335
     35 H           6.1293   -2.0648    0.0000 H       1  UNL1        0.0277
     36 H           6.9520   -2.5398    0.0000 H       1  UNL1        0.0277
     37 H           5.6136   -2.1062    0.0000 H       1  UNL1        0.0352
     38 H           9.2116   -0.3761    0.0000 H       1  UNL1        0.0312
     39 H           7.3961   -3.0486    0.0000 H       1  UNL1        0.0271
     40 H           8.0135   -2.4947    0.0000 H       1  UNL1        0.0271
     41 H           6.5281    0.6258    0.0000 H       1  UNL1        0.0271
     42 H           6.1296   -0.0645    0.0000 H       1  UNL1        0.0271
     43 H           5.8187   -2.7234    0.0000 H       1  UNL1        0.0271
     44 H           6.5370   -3.1382    0.0000 H       1  UNL1        0.0271
     45 H           8.0047    1.0182    0.0000 H       1  UNL1        0.0268
     46 H           7.2077    1.0182    0.0000 H       1  UNL1        0.0268
     47 H           9.9001   -1.8066    0.0000 H       1  UNL1        0.0599
     48 H          11.0067   -0.3638    0.0000 H       1  UNL1        0.0313
     49 H           7.8522   -1.9568    0.0000 H       1  UNL1        0.0236
     50 H           8.4722   -2.5768    0.0000 H       1  UNL1        0.0236
     51 H           9.0922   -1.9568    0.0000 H       1  UNL1        0.0236
     52 H          10.4813   -1.5613    0.0000 H       1  UNL1        0.0293
     53 H          10.8831   -0.8715    0.0000 H       1  UNL1        0.0293
     54 H           9.1186    2.2413    0.0000 H       1  UNL1        0.0271
     55 H           8.7328    1.5424    0.0000 H       1  UNL1        0.0271
     56 H           8.8022    1.6105    0.0000 H       1  UNL1        0.0235
     57 H           7.9570    1.3770    0.0000 H       1  UNL1        0.0235
     58 H           8.1905    0.5319    0.0000 H       1  UNL1        0.0235
     59 H          10.6659    2.6985    0.0000 H       1  UNL1        0.0290
     60 H           9.8676    2.6893    0.0000 H       1  UNL1        0.0290
     61 H          11.7536    1.3753    0.0000 H       1  UNL1        0.0599
     62 H           5.2057   -0.3122    0.0000 H       1  UNL1        0.0348
     63 H           4.4864    0.1014    0.0000 H       1  UNL1        0.0348
     64 H           9.8879   -2.8076    0.0000 H       1  UNL1        0.2098
     65 H           4.3486   -2.7046    0.0000 H       1  UNL1        0.1023
     66 H          11.1746   -0.5766    0.0000 H       1  UNL1        0.0236
     67 H          12.0206   -0.8068    0.0000 H       1  UNL1        0.0236
     68 H          12.2136   -0.0246    0.0000 H       1  UNL1        0.0236
     69 H          12.2508    0.0392    0.0000 H       1  UNL1        0.0236
     70 H          12.8360    0.5930    0.0000 H       1  UNL1        0.0236
     71 H          12.2184    1.2154    0.0000 H       1  UNL1        0.0236
     72 H           3.9252    0.1830    0.0000 H       1  UNL1        0.0763
     73 H           2.4899   -0.5828    0.0000 H       1  UNL1        0.0662
     74 H          12.0777    2.8076    0.0000 H       1  UNL1        0.2098
     75 H           3.8497    0.7121    0.0000 H       1  UNL1        0.0258
     76 H           4.3260    1.4483    0.0000 H       1  UNL1        0.0258
     77 H           2.5316    2.2663    0.0000 H       1  UNL1        0.0258
     78 H           1.6559    2.3107    0.0000 H       1  UNL1        0.0258
     79 H           1.6115    1.4350    0.0000 H       1  UNL1        0.0258
     80 H           3.5898    1.9245    0.0000 H       1  UNL1        0.0258
@<TRIPOS>BOND
     1    16     1    1
     2     1    64    1
     3     2    27    1
     4     2    30    1
     5    25     3    1
     6     3    74    1
     7     4    31    1
     8     4    32    1
     9     5     6    1
    10     5     7    1
    11     5     8    1
    12     5    11    1
    13     6     7    1
    14     6     9    1
    15     6    12    1
    16     7    35    1
    17     7    36    1
    18     8    10    1
    19     8    16    1
    20     8    18    1
    21     9    13    1
    22     9    20    1
    23     9    37    1
    24    10    14    1
    25    10    15    1
    26    10    38    1
    27    11    13    1
    28    11    39    1
    29    11    40    1
    30    12    14    1
    31    12    41    1
    32    12    42    1
    33    13    43    1
    34    13    44    1
    35    14    45    1
    36    14    46    1
    37    15    17    1
    38    15    21    1
    39    15    23    1
    40    16    19    1
    41    16    47    1
    42    17    19    1
    43    17    22    1
    44    17    48    1
    45    18    49    1
    46    18    50    1
    47    18    51    1
    48    19    52    1
    49    19    53    1
    50    20    26    1
    51    20    27    2
    52    21    24    1
    53    21    54    1
    54    21    55    1
    55    22    25    1
    56    22    28    1
    57    22    29    1
    58    23    56    1
    59    23    57    1
    60    23    58    1
    61    24    25    1
    62    24    59    1
    63    24    60    1
    64    25    61    1
    65    26    30    1
    66    26    62    1
    67    26    63    1
    68    27    65    1
    69    28    68    1
    70    28    70    1
    71    28    71    1
    72    29    66    1
    73    29    67    1
    74    29    69    1
    75    30    31    1
    76    30    72    1
    77    31    32    1
    78    31    73    1
    79    32    33    1
    80    32    34    1
    81    33    77    1
    82    33    78    1
    83    33    79    1
    84    34    75    1
    85    34    76    1
    86    34    80    1
