@<TRIPOS>MOLECULE
IMPHY006725
 20 20 0 0 0
SMALL
GASTEIGER

@<TRIPOS>ATOM
      1 O           2.0000    1.2500    0.0000 O.2     1  UNL1       -0.2921
      2 C           3.7320    1.2500    0.0000 C.3     1  UNL1        0.0076
      3 C           2.8660   -0.2500    0.0000 C.ar    1  UNL1        0.0174
      4 C           2.8660    0.7500    0.0000 C.2     1  UNL1        0.1629
      5 C           2.0000   -0.7500    0.0000 C.ar    1  UNL1       -0.0513
      6 C           3.7320   -0.7500    0.0000 C.ar    1  UNL1       -0.0513
      7 C           3.7320    2.2500    0.0000 C.3     1  UNL1       -0.0582
      8 C           2.0000   -1.7500    0.0000 C.ar    1  UNL1       -0.0611
      9 C           3.7320   -1.7500    0.0000 C.ar    1  UNL1       -0.0611
     10 C           2.8660   -2.2500    0.0000 C.ar    1  UNL1       -0.0617
     11 H           3.9441    0.6674    0.0000 H       1  UNL1        0.0342
     12 H           4.3426    1.3577    0.0000 H       1  UNL1        0.0342
     13 H           1.4631   -0.4400    0.0000 H       1  UNL1        0.0624
     14 H           4.2690   -0.4400    0.0000 H       1  UNL1        0.0624
     15 H           4.3520    2.2500    0.0000 H       1  UNL1        0.0234
     16 H           3.7320    2.8700    0.0000 H       1  UNL1        0.0234
     17 H           3.1120    2.2500    0.0000 H       1  UNL1        0.0234
     18 H           1.4631   -2.0600    0.0000 H       1  UNL1        0.0618
     19 H           4.2690   -2.0600    0.0000 H       1  UNL1        0.0618
     20 H           2.8660   -2.8700    0.0000 H       1  UNL1        0.0618
@<TRIPOS>BOND
     1     1     4    2
     2     2     4    1
     3     2     7    1
     4     2    11    1
     5     2    12    1
     6     3     4    1
     7     3     5   ar
     8     3     6   ar
     9     5     8   ar
    10     5    13    1
    11     6     9   ar
    12     6    14    1
    13     7    15    1
    14     7    16    1
    15     7    17    1
    16     8    10   ar
    17     8    18    1
    18     9    10   ar
    19     9    19    1
    20    10    20    1
