@<TRIPOS>MOLECULE
IMPHY002499
 147 154 0 0 0
SMALL
GASTEIGER

@<TRIPOS>ATOM
      1 O           6.8567    2.6055    0.0000 O.3     1  UNL1       -0.3912
      2 O           8.5991   -1.4673    0.0000 O.3     1  UNL1       -0.3449
      3 O          10.3896    6.6364    0.0000 O.3     1  UNL1       -0.3915
      4 O           6.8671   -1.4673    0.0000 O.3     1  UNL1       -0.3405
      5 O           8.5991   -3.4673    0.0000 O.3     1  UNL1       -0.3841
      6 O           6.8671   -4.4673    0.0000 O.3     1  UNL1       -0.3400
      7 O           9.1542    9.2734    0.0000 O.2     1  UNL1       -0.2971
      8 O           5.1350   -3.4673    0.0000 O.3     1  UNL1       -0.3865
      9 O           5.1350   -0.4673    0.0000 O.3     1  UNL1       -0.3924
     10 O           5.1350   -4.4673    0.0000 O.3     1  UNL1       -0.3405
     11 O           6.8671   -6.4673    0.0000 O.3     1  UNL1       -0.3378
     12 O           5.1350   -7.4673    0.0000 O.3     1  UNL1       -0.3864
     13 O           3.4030   -6.4673    0.0000 O.3     1  UNL1       -0.3865
     14 O           2.5369   -4.9673    0.0000 O.3     1  UNL1       -0.3924
     15 O           6.0010   -7.9673    0.0000 O.3     1  UNL1       -0.3405
     16 O           8.5991   -7.4673    0.0000 O.3     1  UNL1       -0.3841
     17 O           8.5991   -9.4673    0.0000 O.3     1  UNL1       -0.3864
     18 O           6.8671  -10.4673    0.0000 O.3     1  UNL1       -0.3865
     19 O           4.2690   -8.9673    0.0000 O.3     1  UNL1       -0.3924
     20 C           8.6269    2.6018    0.0000 C.3     1  UNL1        0.0065
     21 C           8.6230    1.6018    0.0000 C.3     1  UNL1       -0.0169
     22 C           7.7584    2.1052    0.0000 C.3     1  UNL1       -0.0377
     23 C           9.4948    3.0985    0.0000 C.3     1  UNL1       -0.0265
     24 C           9.4871    1.0985    0.0000 C.3     1  UNL1       -0.0272
     25 C           9.5149    4.1399    0.0000 C.3     1  UNL1       -0.0205
     26 C           7.7189    3.1122    0.0000 C.3     1  UNL1        0.0622
     27 C           8.6189    4.6711    0.0000 C.3     1  UNL1       -0.0186
     28 C           7.7111    1.0985    0.0000 C.3     1  UNL1       -0.0441
     29 C          10.3589    2.5952    0.0000 C.3     1  UNL1       -0.0488
     30 C           7.7148    4.1538    0.0000 C.3     1  UNL1       -0.0200
     31 C          10.3551    1.5952    0.0000 C.3     1  UNL1       -0.0488
     32 C           9.4992    0.0569    0.0000 C.3     1  UNL1       -0.0052
     33 C           8.8485    5.6808    0.0000 C.3     1  UNL1       -0.0064
     34 C          10.2906    4.8259    0.0000 C.3     1  UNL1       -0.0204
     35 C           7.6990    0.0569    0.0000 C.3     1  UNL1       -0.0255
     36 C           8.5991   -0.4673    0.0000 C.3     1  UNL1        0.0672
     37 C           9.8796    5.7763    0.0000 C.3     1  UNL1        0.0593
     38 C          10.3751    3.6300    0.0000 C.3     1  UNL1       -0.0587
     39 C           7.7587    5.1811    0.0000 C.3     1  UNL1       -0.0586
     40 C           8.1893    6.4328    0.0000 C.3     1  UNL1       -0.0378
     41 C          10.4991    0.0647    0.0000 C.3     1  UNL1       -0.0572
     42 C          10.0058   -0.8052    0.0000 C.3     1  UNL1       -0.0572
     43 C           8.5110    7.3797    0.0000 C.3     1  UNL1       -0.0434
     44 C           7.2085    6.2379    0.0000 C.3     1  UNL1       -0.0621
     45 C           7.7331   -1.9673    0.0000 C.3     1  UNL1        0.1882
     46 C           7.8518    8.1316    0.0000 C.3     1  UNL1        0.0063
     47 C           7.7331   -2.9673    0.0000 C.3     1  UNL1        0.1345
     48 C           8.1734    9.0785    0.0000 C.2     1  UNL1        0.1359
     49 C           6.8671   -3.4673    0.0000 C.3     1  UNL1        0.1206
     50 C           6.0010   -1.9673    0.0000 C.3     1  UNL1        0.1130
     51 C           6.0010   -2.9673    0.0000 C.3     1  UNL1        0.1123
     52 C           7.5142    9.8305    0.0000 C.3     1  UNL1        0.0119
     53 C           5.1350   -1.4673    0.0000 C.3     1  UNL1        0.0730
     54 C           7.8358   10.7773    0.0000 C.3     1  UNL1       -0.0560
     55 C           6.5334    9.6356    0.0000 C.3     1  UNL1       -0.0560
     56 C           6.0010   -4.9673    0.0000 C.3     1  UNL1        0.1888
     57 C           6.0010   -5.9673    0.0000 C.3     1  UNL1        0.1406
     58 C           5.1350   -6.4673    0.0000 C.3     1  UNL1        0.1144
     59 C           4.2690   -4.9673    0.0000 C.3     1  UNL1        0.1130
     60 C           4.2690   -5.9673    0.0000 C.3     1  UNL1        0.1119
     61 C           3.4030   -4.4673    0.0000 C.3     1  UNL1        0.0730
     62 C           6.8671   -7.4673    0.0000 C.3     1  UNL1        0.1885
     63 C           7.7331   -7.9673    0.0000 C.3     1  UNL1        0.1341
     64 C           7.7331   -8.9673    0.0000 C.3     1  UNL1        0.1141
     65 C           6.0010   -8.9673    0.0000 C.3     1  UNL1        0.1130
     66 C           6.8671   -9.4673    0.0000 C.3     1  UNL1        0.1119
     67 C           5.1350   -9.4673    0.0000 C.3     1  UNL1        0.0730
     68 H           7.3618    2.5817    0.0000 H       1  UNL1        0.0277
     69 H           7.3581    1.6317    0.0000 H       1  UNL1        0.0277
     70 H          10.2358    3.5150    0.0000 H       1  UNL1        0.0313
     71 H          10.2249    0.6763    0.0000 H       1  UNL1        0.0312
     72 H           7.1801    3.4191    0.0000 H       1  UNL1        0.0599
     73 H           7.5088    1.6846    0.0000 H       1  UNL1        0.0272
     74 H           7.0990    0.9995    0.0000 H       1  UNL1        0.0272
     75 H          10.9691    2.4851    0.0000 H       1  UNL1        0.0268
     76 H          10.5732    3.1769    0.0000 H       1  UNL1        0.0268
     77 H           7.5035    4.7367    0.0000 H       1  UNL1        0.0296
     78 H           7.1044    4.0454    0.0000 H       1  UNL1        0.0296
     79 H          10.5649    1.0117    0.0000 H       1  UNL1        0.0268
     80 H          10.9661    1.7005    0.0000 H       1  UNL1        0.0268
     81 H           8.0246    5.4721    0.0000 H       1  UNL1        0.0334
     82 H          10.6502    4.3208    0.0000 H       1  UNL1        0.0296
     83 H          10.8306    5.1304    0.0000 H       1  UNL1        0.0296
     84 H           7.0895    0.1701    0.0000 H       1  UNL1        0.0290
     85 H           7.4833   -0.5243    0.0000 H       1  UNL1        0.0290
     86 H           9.1366   -0.7763    0.0000 H       1  UNL1        0.0602
     87 H           9.5482    6.3002    0.0000 H       1  UNL1        0.0596
     88 H          10.0589    3.0966    0.0000 H       1  UNL1        0.0235
     89 H          10.9084    3.3138    0.0000 H       1  UNL1        0.0235
     90 H          10.6913    4.1633    0.0000 H       1  UNL1        0.0235
     91 H           8.0749    5.7144    0.0000 H       1  UNL1        0.0235
     92 H           7.2254    5.4973    0.0000 H       1  UNL1        0.0235
     93 H           7.4426    4.6478    0.0000 H       1  UNL1        0.0235
     94 H           7.7806    6.8990    0.0000 H       1  UNL1        0.0302
     95 H           6.3174    2.9114    0.0000 H       1  UNL1        0.2098
     96 H           9.4713   -1.1193    0.0000 H       1  UNL1        0.0236
     97 H          10.3200   -1.3397    0.0000 H       1  UNL1        0.0236
     98 H          10.5404   -0.4911    0.0000 H       1  UNL1        0.0236
     99 H          10.5039   -0.5553    0.0000 H       1  UNL1        0.0236
    100 H          11.1191    0.0694    0.0000 H       1  UNL1        0.0236
    101 H          10.4944    0.6846    0.0000 H       1  UNL1        0.0236
    102 H          11.0095    6.6293    0.0000 H       1  UNL1        0.2098
    103 H           9.0545    7.0813    0.0000 H       1  UNL1        0.0272
    104 H           8.8991    7.8631    0.0000 H       1  UNL1        0.0272
    105 H           7.0877    6.8460    0.0000 H       1  UNL1        0.0233
    106 H           6.6004    6.1171    0.0000 H       1  UNL1        0.0233
    107 H           7.3293    5.6298    0.0000 H       1  UNL1        0.0233
    108 H           7.7331   -1.3473    0.0000 H       1  UNL1        0.0937
    109 H           7.3083    8.4300    0.0000 H       1  UNL1        0.0342
    110 H           7.4636    7.6482    0.0000 H       1  UNL1        0.0342
    111 H           7.7331   -3.5873    0.0000 H       1  UNL1        0.0671
    112 H           6.3301   -3.7773    0.0000 H       1  UNL1        0.0651
    113 H           6.0010   -1.3473    0.0000 H       1  UNL1        0.0647
    114 H           5.4641   -2.6573    0.0000 H       1  UNL1        0.0647
    115 H           8.5991   -4.0873    0.0000 H       1  UNL1        0.2101
    116 H           7.3148    9.2434    0.0000 H       1  UNL1        0.0372
    117 H           4.5244   -1.3597    0.0000 H       1  UNL1        0.0584
    118 H           4.9230   -2.0500    0.0000 H       1  UNL1        0.0584
    119 H           4.5981   -3.1573    0.0000 H       1  UNL1        0.2100
    120 H           6.4126   10.2437    0.0000 H       1  UNL1        0.0236
    121 H           8.4229   10.5779    0.0000 H       1  UNL1        0.0236
    122 H           5.9253    9.5148    0.0000 H       1  UNL1        0.0236
    123 H           6.6542    9.0275    0.0000 H       1  UNL1        0.0236
    124 H           8.0353   11.3644    0.0000 H       1  UNL1        0.0236
    125 H           7.2488   10.9768    0.0000 H       1  UNL1        0.0236
    126 H           6.5380   -5.2773    0.0000 H       1  UNL1        0.0938
    127 H           4.5981   -0.1573    0.0000 H       1  UNL1        0.2095
    128 H           6.0010   -6.5873    0.0000 H       1  UNL1        0.0675
    129 H           4.5981   -6.7773    0.0000 H       1  UNL1        0.0648
    130 H           4.2690   -4.3473    0.0000 H       1  UNL1        0.0647
    131 H           3.7320   -5.6573    0.0000 H       1  UNL1        0.0647
    132 H           3.8015   -3.9924    0.0000 H       1  UNL1        0.0584
    133 H           3.0044   -3.9924    0.0000 H       1  UNL1        0.0584
    134 H           4.5981   -7.7773    0.0000 H       1  UNL1        0.2100
    135 H           6.3301   -7.1573    0.0000 H       1  UNL1        0.0938
    136 H           3.4030   -7.0873    0.0000 H       1  UNL1        0.2100
    137 H           7.7331   -7.3473    0.0000 H       1  UNL1        0.0671
    138 H           2.0000   -4.6573    0.0000 H       1  UNL1        0.2095
    139 H           7.7331   -9.5873    0.0000 H       1  UNL1        0.0648
    140 H           5.4641   -8.6573    0.0000 H       1  UNL1        0.0647
    141 H           6.3301   -9.7773    0.0000 H       1  UNL1        0.0647
    142 H           9.1360   -7.7773    0.0000 H       1  UNL1        0.2101
    143 H           4.7365   -9.9423    0.0000 H       1  UNL1        0.0584
    144 H           5.5335   -9.9423    0.0000 H       1  UNL1        0.0584
    145 H           8.5991  -10.0873    0.0000 H       1  UNL1        0.2100
    146 H           6.3301  -10.7773    0.0000 H       1  UNL1        0.2100
    147 H           3.7320   -9.2773    0.0000 H       1  UNL1        0.2095
@<TRIPOS>BOND
     1    26     1    1
     2     1    95    1
     3    36     2    1
     4    45     2    1
     5    37     3    1
     6     3   102    1
     7     4    45    1
     8     4    50    1
     9    47     5    1
    10     5   115    1
    11    49     6    1
    12    56     6    1
    13     7    48    2
    14    51     8    1
    15     8   119    1
    16     9    53    1
    17     9   127    1
    18    10    56    1
    19    10    59    1
    20    57    11    1
    21    62    11    1
    22    58    12    1
    23    12   134    1
    24    60    13    1
    25    13   136    1
    26    14    61    1
    27    14   138    1
    28    15    62    1
    29    15    65    1
    30    63    16    1
    31    16   142    1
    32    64    17    1
    33    17   145    1
    34    66    18    1
    35    18   146    1
    36    19    67    1
    37    19   147    1
    38    20    21    1
    39    20    22    1
    40    20    23    1
    41    20    26    1
    42    21    22    1
    43    21    24    1
    44    21    28    1
    45    22    68    1
    46    22    69    1
    47    23    25    1
    48    23    29    1
    49    23    70    1
    50    24    31    1
    51    24    32    1
    52    24    71    1
    53    25    27    1
    54    25    34    1
    55    25    38    1
    56    26    30    1
    57    26    72    1
    58    27    30    1
    59    27    33    1
    60    27    39    1
    61    28    35    1
    62    28    73    1
    63    28    74    1
    64    29    31    1
    65    29    75    1
    66    29    76    1
    67    30    77    1
    68    30    78    1
    69    31    79    1
    70    31    80    1
    71    32    36    1
    72    32    41    1
    73    32    42    1
    74    33    37    1
    75    33    40    1
    76    33    81    1
    77    34    37    1
    78    34    82    1
    79    34    83    1
    80    35    36    1
    81    35    84    1
    82    35    85    1
    83    36    86    1
    84    37    87    1
    85    38    88    1
    86    38    89    1
    87    38    90    1
    88    39    91    1
    89    39    92    1
    90    39    93    1
    91    40    43    1
    92    40    44    1
    93    40    94    1
    94    41    99    1
    95    41   100    1
    96    41   101    1
    97    42    96    1
    98    42    97    1
    99    42    98    1
   100    43    46    1
   101    43   103    1
   102    43   104    1
   103    44   105    1
   104    44   106    1
   105    44   107    1
   106    45    47    1
   107    45   108    1
   108    46    48    1
   109    46   109    1
   110    46   110    1
   111    47    49    1
   112    47   111    1
   113    48    52    1
   114    49    51    1
   115    49   112    1
   116    50    51    1
   117    50    53    1
   118    50   113    1
   119    51   114    1
   120    52    54    1
   121    52    55    1
   122    52   116    1
   123    53   117    1
   124    53   118    1
   125    54   121    1
   126    54   124    1
   127    54   125    1
   128    55   120    1
   129    55   122    1
   130    55   123    1
   131    56    57    1
   132    56   126    1
   133    57    58    1
   134    57   128    1
   135    58    60    1
   136    58   129    1
   137    59    60    1
   138    59    61    1
   139    59   130    1
   140    60   131    1
   141    61   132    1
   142    61   133    1
   143    62    63    1
   144    62   135    1
   145    63    64    1
   146    63   137    1
   147    64    66    1
   148    64   139    1
   149    65    66    1
   150    65    67    1
   151    65   140    1
   152    66   141    1
   153    67   143    1
   154    67   144    1
