@<TRIPOS>MOLECULE
IMPHY005916
 29 32 0 0 0
SMALL
GASTEIGER

@<TRIPOS>ATOM
      1 O           6.3981    0.5208    0.0000 O.2     1  UNL1       -0.4178
      2 O           2.8660   -0.5000    0.0000 O.2     1  UNL1       -0.4177
      3 O           2.8611    2.4853    0.0000 O.3     1  UNL1       -0.5027
      4 O           6.3038    2.5531    0.0000 O.3     1  UNL1       -0.5008
      5 O           2.8611   -2.4853    0.0000 O.3     1  UNL1       -0.5009
      6 O           4.5632    3.4990    0.0000 O.3     1  UNL1       -0.5008
      7 O           4.5632   -3.4990    0.0000 O.3     1  UNL1       -0.5032
      8 O           2.0000    1.0000    0.0000 O.2     1  UNL1       -0.2444
      9 O           7.2622   -1.0241    0.0000 O.2     1  UNL1       -0.2445
     10 C           4.5981    0.5000    0.0000 C.ar    1  UNL1        0.0504
     11 C           4.5981   -0.5000    0.0000 C.ar    1  UNL1        0.0469
     12 C           3.7320    1.0000    0.0000 C.ar    1  UNL1        0.1159
     13 C           5.4920   -1.0347    0.0000 C.ar    1  UNL1        0.0744
     14 C           5.4920    1.0347    0.0000 C.ar    1  UNL1        0.1856
     15 C           3.7320   -1.0000    0.0000 C.ar    1  UNL1        0.1854
     16 C           3.7308    1.9917    0.0000 C.ar    1  UNL1        0.1771
     17 C           5.4542    2.0256    0.0000 C.ar    1  UNL1        0.2060
     18 C           3.7308   -1.9917    0.0000 C.ar    1  UNL1        0.2022
     19 C           2.8660    0.5000    0.0000 C.ar    1  UNL1        0.3490
     20 C           5.4542   -2.0256    0.0000 C.ar    1  UNL1       -0.0017
     21 C           6.3981   -0.5208    0.0000 C.ar    1  UNL1        0.3454
     22 C           4.5828    2.4991    0.0000 C.ar    1  UNL1        0.2052
     23 C           4.5828   -2.4991    0.0000 C.ar    1  UNL1        0.1628
     24 H           5.9810   -2.3527    0.0000 H       1  UNL1        0.0664
     25 H           2.8565    3.1053    0.0000 H       1  UNL1        0.2923
     26 H           6.2840    3.1728    0.0000 H       1  UNL1        0.2924
     27 H           2.8565   -3.1053    0.0000 H       1  UNL1        0.2924
     28 H           5.0939    3.8195    0.0000 H       1  UNL1        0.2924
     29 H           5.0939   -3.8195    0.0000 H       1  UNL1        0.2923
@<TRIPOS>BOND
     1     1    14   ar
     2     1    21   ar
     3     2    15   ar
     4     2    19   ar
     5     3    16    1
     6     3    25    1
     7     4    17    1
     8     4    26    1
     9     5    18    1
    10     5    27    1
    11     6    22    1
    12     6    28    1
    13     7    23    1
    14     7    29    1
    15     8    19    2
    16     9    21    2
    17    10    11   ar
    18    10    12   ar
    19    10    14   ar
    20    11    13   ar
    21    11    15   ar
    22    12    16   ar
    23    12    19   ar
    24    13    20   ar
    25    13    21   ar
    26    14    17   ar
    27    15    18   ar
    28    16    22   ar
    29    17    22   ar
    30    18    23   ar
    31    20    23   ar
    32    20    24    1
