@<TRIPOS>MOLECULE
IMPHY004861
 53 55 0 0 0
SMALL
GASTEIGER

@<TRIPOS>ATOM
      1 O           8.1962    0.1723    0.0000 O.3     1  UNL1       -0.5060
      2 O           6.4144   -2.8864    0.0000 O.3     1  UNL1       -0.5056
      3 O           4.6660   -2.8519    0.0000 O.2     1  UNL1       -0.2864
      4 O           2.9176    1.1827    0.0000 O.3     1  UNL1       -0.5047
      5 N           4.6660    0.1481    0.0000 N.ar    1  UNL1       -0.3507
      6 C           5.5321   -0.3519    0.0000 C.ar    1  UNL1        0.0612
      7 C           6.4260    0.1828    0.0000 C.ar    1  UNL1        0.0222
      8 C           5.5321   -1.3518    0.0000 C.ar    1  UNL1        0.0877
      9 C           7.3321   -1.3727    0.0000 C.ar    1  UNL1        0.0402
     10 C           7.3321   -0.3310    0.0000 C.ar    1  UNL1        0.1292
     11 C           6.4260   -1.8865    0.0000 C.ar    1  UNL1        0.1366
     12 C           6.4144    1.1827    0.0000 C.3     1  UNL1       -0.0038
     13 C           3.8000   -0.3519    0.0000 C.ar    1  UNL1        0.0926
     14 C           3.8000   -1.3518    0.0000 C.ar    1  UNL1        0.0493
     15 C           4.6660   -1.8518    0.0000 C.ar    1  UNL1        0.2007
     16 C           8.1962   -1.8760    0.0000 C.3     1  UNL1       -0.0023
     17 C           2.9061    0.1828    0.0000 C.ar    1  UNL1        0.1408
     18 C           2.9061   -1.8865    0.0000 C.ar    1  UNL1       -0.0487
     19 C           7.2746    1.6927    0.0000 C.2     1  UNL1       -0.0808
     20 C           9.0641   -1.3793    0.0000 C.2     1  UNL1       -0.0807
     21 C           2.0000   -0.3310    0.0000 C.ar    1  UNL1       -0.0181
     22 C           2.0000   -1.3727    0.0000 C.ar    1  UNL1       -0.0575
     23 C           7.2631    2.6927    0.0000 C.2     1  UNL1       -0.0793
     24 C           9.9282   -1.8827    0.0000 C.2     1  UNL1       -0.0793
     25 C           8.1232    3.2026    0.0000 C.3     1  UNL1       -0.0440
     26 C           6.3913    3.1826    0.0000 C.3     1  UNL1       -0.0440
     27 C          10.7961   -1.3860    0.0000 C.3     1  UNL1       -0.0440
     28 C           9.9243   -2.8827    0.0000 C.3     1  UNL1       -0.0440
     29 H           4.6660    0.7681    0.0000 H       1  UNL1        0.1660
     30 H           6.1957    1.7629    0.0000 H       1  UNL1        0.0357
     31 H           5.8051    1.0680    0.0000 H       1  UNL1        0.0357
     32 H           7.7958   -2.3494    0.0000 H       1  UNL1        0.0358
     33 H           8.5929   -2.3525    0.0000 H       1  UNL1        0.0358
     34 H           7.8151    1.3889    0.0000 H       1  UNL1        0.0575
     35 H           2.9132   -2.5065    0.0000 H       1  UNL1        0.0625
     36 H           9.0665   -0.7593    0.0000 H       1  UNL1        0.0575
     37 H           1.4643   -0.0190    0.0000 H       1  UNL1        0.0655
     38 H           1.4643   -1.6847    0.0000 H       1  UNL1        0.0619
     39 H           8.7343   -0.1356    0.0000 H       1  UNL1        0.2922
     40 H           6.9478   -3.2026    0.0000 H       1  UNL1        0.2922
     41 H           8.4394    2.6693    0.0000 H       1  UNL1        0.0274
     42 H           8.6566    3.5188    0.0000 H       1  UNL1        0.0274
     43 H           7.8071    3.7360    0.0000 H       1  UNL1        0.0274
     44 H           6.6951    3.7231    0.0000 H       1  UNL1        0.0274
     45 H           5.8508    3.4864    0.0000 H       1  UNL1        0.0274
     46 H           6.0875    2.6421    0.0000 H       1  UNL1        0.0274
     47 H           2.3843    1.4989    0.0000 H       1  UNL1        0.2922
     48 H           9.3044   -2.8803    0.0000 H       1  UNL1        0.0274
     49 H           9.9220   -3.5027    0.0000 H       1  UNL1        0.0274
     50 H          10.5443   -2.8851    0.0000 H       1  UNL1        0.0274
     51 H          11.1041   -1.9242    0.0000 H       1  UNL1        0.0274
     52 H          11.3343   -1.0781    0.0000 H       1  UNL1        0.0274
     53 H          10.4882   -0.8479    0.0000 H       1  UNL1        0.0274
@<TRIPOS>BOND
     1     1    10    1
     2     1    39    1
     3     2    11    1
     4     2    40    1
     5     3    15    2
     6     4    17    1
     7     4    47    1
     8     5     6   ar
     9     5    13   ar
    10     5    29    1
    11     6     7   ar
    12     6     8   ar
    13     7    10   ar
    14     7    12    1
    15     8    11   ar
    16     8    15   ar
    17     9    10   ar
    18     9    11   ar
    19     9    16    1
    20    12    19    1
    21    12    30    1
    22    12    31    1
    23    13    14   ar
    24    13    17   ar
    25    14    15   ar
    26    14    18   ar
    27    16    20    1
    28    16    32    1
    29    16    33    1
    30    17    21   ar
    31    18    22   ar
    32    18    35    1
    33    19    23    2
    34    19    34    1
    35    20    24    2
    36    20    36    1
    37    21    22   ar
    38    21    37    1
    39    22    38    1
    40    23    25    1
    41    23    26    1
    42    24    27    1
    43    24    28    1
    44    25    41    1
    45    25    42    1
    46    25    43    1
    47    26    44    1
    48    26    45    1
    49    26    46    1
    50    27    51    1
    51    27    52    1
    52    27    53    1
    53    28    48    1
    54    28    49    1
    55    28    50    1
