@<TRIPOS>MOLECULE
IMPHY007784
 55 56 0 0 0
SMALL
GASTEIGER

@<TRIPOS>ATOM
      1 O           8.0622   -1.2390    0.0000 O.3     1  UNL1       -0.4555
      2 O           9.2942    1.6270    0.0000 O.3     1  UNL1       -0.3772
      3 O           9.7942   -2.2390    0.0000 O.3     1  UNL1       -0.3856
      4 O          11.5263   -1.2390    0.0000 O.3     1  UNL1       -0.3890
      5 O          11.2942    1.6270    0.0000 O.3     1  UNL1       -0.4626
      6 O           9.7942    2.4930    0.0000 O.2     1  UNL1       -0.2476
      7 O           7.1962    0.2610    0.0000 O.2     1  UNL1       -0.2456
      8 O           2.0000   -0.7390    0.0000 O.3     1  UNL1       -0.5033
      9 O           2.0000   -2.7390    0.0000 O.3     1  UNL1       -0.5033
     10 C           9.7942    0.7610    0.0000 C.3     1  UNL1        0.1678
     11 C           8.9282    0.2610    0.0000 C.3     1  UNL1        0.0264
     12 C           8.9282   -0.7390    0.0000 C.3     1  UNL1        0.1346
     13 C          10.6603    0.2610    0.0000 C.3     1  UNL1        0.0153
     14 C           9.7942   -1.2390    0.0000 C.3     1  UNL1        0.1180
     15 C          10.6603   -0.7390    0.0000 C.3     1  UNL1        0.0877
     16 C          10.2942    1.6270    0.0000 C.2     1  UNL1        0.3394
     17 C           7.1962   -0.7390    0.0000 C.2     1  UNL1        0.3323
     18 C          11.7942    2.4930    0.0000 C.3     1  UNL1        0.0925
     19 C          12.7942    2.4930    0.0000 C.3     1  UNL1       -0.0188
     20 C           6.3301   -1.2390    0.0000 C.2     1  UNL1        0.0231
     21 C          13.2942    3.3590    0.0000 C.3     1  UNL1       -0.0528
     22 C           5.4641   -0.7390    0.0000 C.2     1  UNL1       -0.0477
     23 C          14.2942    3.3590    0.0000 C.3     1  UNL1       -0.0652
     24 C           4.5981   -1.2390    0.0000 C.ar    1  UNL1       -0.0211
     25 C           3.7320   -0.7390    0.0000 C.ar    1  UNL1       -0.0094
     26 C           4.5981   -2.2390    0.0000 C.ar    1  UNL1       -0.0509
     27 C           2.8660   -1.2390    0.0000 C.ar    1  UNL1        0.1588
     28 C           3.7320   -2.7390    0.0000 C.ar    1  UNL1       -0.0160
     29 C           2.8660   -2.2390    0.0000 C.ar    1  UNL1        0.1582
     30 H           8.7162    0.8436    0.0000 H       1  UNL1        0.0335
     31 H           8.3176    0.1533    0.0000 H       1  UNL1        0.0335
     32 H           8.9282   -1.3590    0.0000 H       1  UNL1        0.0762
     33 H          11.2708    0.1533    0.0000 H       1  UNL1        0.0324
     34 H          10.8723    0.8436    0.0000 H       1  UNL1        0.0324
     35 H          10.3312   -1.5490    0.0000 H       1  UNL1        0.0656
     36 H          11.1972   -0.4290    0.0000 H       1  UNL1        0.0621
     37 H           8.6742    1.6270    0.0000 H       1  UNL1        0.2109
     38 H          10.3312   -2.5490    0.0000 H       1  UNL1        0.2100
     39 H          12.0632   -0.9290    0.0000 H       1  UNL1        0.2099
     40 H          11.9019    3.1036    0.0000 H       1  UNL1        0.0697
     41 H          11.2116    2.7051    0.0000 H       1  UNL1        0.0697
     42 H          12.6866    1.8824    0.0000 H       1  UNL1        0.0298
     43 H          13.3768    2.2810    0.0000 H       1  UNL1        0.0298
     44 H           6.3301   -1.8590    0.0000 H       1  UNL1        0.0689
     45 H          13.4019    3.9696    0.0000 H       1  UNL1        0.0264
     46 H          12.7116    3.5711    0.0000 H       1  UNL1        0.0264
     47 H           5.4641   -0.1190    0.0000 H       1  UNL1        0.0626
     48 H          14.2942    2.7390    0.0000 H       1  UNL1        0.0230
     49 H          14.9142    3.3590    0.0000 H       1  UNL1        0.0230
     50 H          14.2942    3.9790    0.0000 H       1  UNL1        0.0230
     51 H           3.7320   -0.1190    0.0000 H       1  UNL1        0.0661
     52 H           5.1350   -2.5490    0.0000 H       1  UNL1        0.0625
     53 H           3.7320   -3.3590    0.0000 H       1  UNL1        0.0655
     54 H           2.0000   -0.1190    0.0000 H       1  UNL1        0.2923
     55 H           2.0000   -3.3590    0.0000 H       1  UNL1        0.2923
@<TRIPOS>BOND
     1    12     1    1
     2     1    17    1
     3    10     2    1
     4     2    37    1
     5    14     3    1
     6     3    38    1
     7    15     4    1
     8     4    39    1
     9     5    16    1
    10     5    18    1
    11     6    16    2
    12     7    17    2
    13     8    27    1
    14     8    54    1
    15     9    29    1
    16     9    55    1
    17    10    11    1
    18    10    13    1
    19    10    16    1
    20    11    12    1
    21    11    30    1
    22    11    31    1
    23    12    14    1
    24    12    32    1
    25    13    15    1
    26    13    33    1
    27    13    34    1
    28    14    15    1
    29    14    35    1
    30    15    36    1
    31    17    20    1
    32    18    19    1
    33    18    40    1
    34    18    41    1
    35    19    21    1
    36    19    42    1
    37    19    43    1
    38    20    22    2
    39    20    44    1
    40    21    23    1
    41    21    45    1
    42    21    46    1
    43    22    24    1
    44    22    47    1
    45    23    48    1
    46    23    49    1
    47    23    50    1
    48    24    25   ar
    49    24    26   ar
    50    25    27   ar
    51    25    51    1
    52    26    28   ar
    53    26    52    1
    54    27    29   ar
    55    28    29   ar
    56    28    53    1
