@<TRIPOS>MOLECULE
IMPHY000085
 17 16 0 0 0
SMALL
GASTEIGER

@<TRIPOS>ATOM
      1 O           4.5981   -0.0600    0.0000 O.3     1  UNL1       -0.4666
      2 O           6.3301   -0.0600    0.0000 O.2     1  UNL1       -0.2546
      3 C           2.8660   -0.0600    0.0000 C.3     1  UNL1       -0.0124
      4 C           3.7320    0.4400    0.0000 C.3     1  UNL1        0.0945
      5 C           2.0000    0.4400    0.0000 C.3     1  UNL1       -0.0596
      6 C           2.8660   -1.0600    0.0000 C.3     1  UNL1       -0.0596
      7 C           5.4641    0.4400    0.0000 C.2     1  UNL1        0.2943
      8 H           2.8660    0.5600    0.0000 H       1  UNL1        0.0328
      9 H           4.1306    0.9149    0.0000 H       1  UNL1        0.0700
     10 H           3.3335    0.9149    0.0000 H       1  UNL1        0.0700
     11 H           2.3100    0.9769    0.0000 H       1  UNL1        0.0233
     12 H           1.4631    0.7500    0.0000 H       1  UNL1        0.0233
     13 H           1.6900   -0.0969    0.0000 H       1  UNL1        0.0233
     14 H           2.2460   -1.0600    0.0000 H       1  UNL1        0.0233
     15 H           2.8660   -1.6800    0.0000 H       1  UNL1        0.0233
     16 H           3.4860   -1.0600    0.0000 H       1  UNL1        0.0233
     17 H           5.4641    1.0600    0.0000 H       1  UNL1        0.1512
@<TRIPOS>BOND
     1     1     4    1
     2     1     7    1
     3     2     7    2
     4     3     4    1
     5     3     5    1
     6     3     6    1
     7     3     8    1
     8     4     9    1
     9     4    10    1
    10     5    11    1
    11     5    12    1
    12     5    13    1
    13     6    14    1
    14     6    15    1
    15     6    16    1
    16     7    17    1
