@<TRIPOS>MOLECULE
IMPHY013255
 39 42 0 0 0
SMALL
GASTEIGER

@<TRIPOS>ATOM
      1 O           5.6510   -0.7455    0.0000 O.3     1  UNL1       -0.4412
      2 O           7.4110    0.2199    0.0000 O.2     1  UNL1       -0.4181
      3 O           3.6670   -1.0506    0.0000 O.2     1  UNL1       -0.4183
      4 O           6.9366   -2.2775    0.0000 O.3     1  UNL1       -0.4913
      5 O           3.8002    0.9282    0.0000 O.3     1  UNL1       -0.5031
      6 O           5.6510    3.2545    0.0000 O.3     1  UNL1       -0.5059
      7 O           9.1811    0.2304    0.0000 O.2     1  UNL1       -0.2452
      8 O           2.0000   -0.4551    0.0000 O.2     1  UNL1       -0.2452
      9 C           5.3089   -1.6852    0.0000 C.ar    1  UNL1        0.2128
     10 C           5.6510    0.2545    0.0000 C.ar    1  UNL1        0.2128
     11 C           6.5170    0.7545    0.0000 C.ar    1  UNL1        0.1882
     12 C           4.3241   -1.8587    0.0000 C.ar    1  UNL1        0.1847
     13 C           6.5170    1.7545    0.0000 C.ar    1  UNL1        0.0629
     14 C           3.9821   -2.7984    0.0000 C.ar    1  UNL1        0.0215
     15 C           5.9518   -2.4512    0.0000 C.ar    1  UNL1        0.1658
     16 C           4.7850    0.7545    0.0000 C.ar    1  UNL1        0.1664
     17 C           5.6510    2.2545    0.0000 C.ar    1  UNL1        0.1312
     18 C           4.6249   -3.5645    0.0000 C.ar    1  UNL1       -0.0474
     19 C           4.7850    1.7545    0.0000 C.ar    1  UNL1        0.0258
     20 C           5.6098   -3.3909    0.0000 C.ar    1  UNL1       -0.0155
     21 C           7.4110    2.2892    0.0000 C.ar    1  UNL1       -0.0407
     22 C           2.9592   -2.9952    0.0000 C.ar    1  UNL1       -0.0442
     23 C           8.3170    1.7754    0.0000 C.ar    1  UNL1        0.0237
     24 C           2.2836   -2.2024    0.0000 C.ar    1  UNL1        0.0236
     25 C           8.3170    0.7337    0.0000 C.ar    1  UNL1        0.3373
     26 C           2.6398   -1.2236    0.0000 C.ar    1  UNL1        0.3373
     27 C           7.5794   -3.0435    0.0000 C.3     1  UNL1        0.0790
     28 H           4.4128   -4.1471    0.0000 H       1  UNL1        0.0626
     29 H           4.2480    2.0645    0.0000 H       1  UNL1        0.0692
     30 H           6.0083   -3.8658    0.0000 H       1  UNL1        0.0655
     31 H           7.4038    2.9092    0.0000 H       1  UNL1        0.0628
     32 H           2.7540   -3.5802    0.0000 H       1  UNL1        0.0627
     33 H           8.8528    2.0874    0.0000 H       1  UNL1        0.0689
     34 H           1.6734   -2.3124    0.0000 H       1  UNL1        0.0689
     35 H           3.5882    1.5109    0.0000 H       1  UNL1        0.2923
     36 H           5.1141    3.5645    0.0000 H       1  UNL1        0.2922
     37 H           7.1045   -3.4421    0.0000 H       1  UNL1        0.0660
     38 H           7.9780   -3.5185    0.0000 H       1  UNL1        0.0660
     39 H           8.0544   -2.6450    0.0000 H       1  UNL1        0.0660
@<TRIPOS>BOND
     1     1     9    1
     2     1    10    1
     3     2    11   ar
     4     2    25   ar
     5     3    12   ar
     6     3    26   ar
     7     4    15    1
     8     4    27    1
     9     5    16    1
    10     5    35    1
    11     6    17    1
    12     6    36    1
    13     7    25    2
    14     8    26    2
    15     9    12   ar
    16     9    15   ar
    17    10    11   ar
    18    10    16   ar
    19    11    13   ar
    20    12    14   ar
    21    13    17   ar
    22    13    21   ar
    23    14    18   ar
    24    14    22   ar
    25    15    20   ar
    26    16    19   ar
    27    17    19   ar
    28    18    20   ar
    29    18    28    1
    30    19    29    1
    31    20    30    1
    32    21    23   ar
    33    21    31    1
    34    22    24   ar
    35    22    32    1
    36    23    25   ar
    37    23    33    1
    38    24    26   ar
    39    24    34    1
    40    27    37    1
    41    27    38    1
    42    27    39    1
