@<TRIPOS>MOLECULE
IMPHY001833
 25 27 0 0 0
SMALL
GASTEIGER

@<TRIPOS>ATOM
      1 S           6.2447    0.3757    0.0000 S.2     1  UNL1       -0.0872
      2 S           8.8138    1.2423    0.0000 S.2     1  UNL1       -0.0774
      3 S           4.1756   -0.2965    0.0000 S.2     1  UNL1       -0.0774
      4 N          11.5249    1.2725    0.0000 N.1     1  UNL1       -0.1903
      5 N           2.0000   -1.9146    0.0000 N.1     1  UNL1       -0.1903
      6 C           7.0537    0.9635    0.0000 C.ar    1  UNL1        0.0265
      7 C           5.4356    0.9635    0.0000 C.ar    1  UNL1        0.0265
      8 C           8.0047    0.6545    0.0000 C.ar    1  UNL1        0.0272
      9 C           4.4846    0.6545    0.0000 C.ar    1  UNL1        0.0272
     10 C           6.7447    1.9146    0.0000 C.ar    1  UNL1       -0.0458
     11 C           5.7447    1.9146    0.0000 C.ar    1  UNL1       -0.0458
     12 C           8.3138   -0.2965    0.0000 C.ar    1  UNL1       -0.0452
     13 C           3.6756    1.2423    0.0000 C.ar    1  UNL1       -0.0452
     14 C           9.3138   -0.2965    0.0000 C.ar    1  UNL1       -0.0366
     15 C           2.8666    0.6545    0.0000 C.ar    1  UNL1       -0.0366
     16 C           9.6228    0.6545    0.0000 C.ar    1  UNL1        0.0894
     17 C           3.1756   -0.2965    0.0000 C.ar    1  UNL1        0.0894
     18 C          10.5738    0.9635    0.0000 C.1     1  UNL1        0.1063
     19 C           2.5878   -1.1056    0.0000 C.1     1  UNL1        0.1063
     20 H           7.1091    2.4162    0.0000 H       1  UNL1        0.0629
     21 H           5.3802    2.4162    0.0000 H       1  UNL1        0.0629
     22 H           7.9493   -0.7981    0.0000 H       1  UNL1        0.0629
     23 H           3.6756    1.8623    0.0000 H       1  UNL1        0.0629
     24 H           9.6782   -0.7981    0.0000 H       1  UNL1        0.0636
     25 H           2.2769    0.8461    0.0000 H       1  UNL1        0.0636
@<TRIPOS>BOND
     1     1     6   ar
     2     1     7   ar
     3     2     8   ar
     4     2    16   ar
     5     3     9   ar
     6     3    17   ar
     7     4    18    3
     8     5    19    3
     9     6     8    1
    10     6    10   ar
    11     7     9    1
    12     7    11   ar
    13     8    12   ar
    14     9    13   ar
    15    10    11   ar
    16    10    20    1
    17    11    21    1
    18    12    14   ar
    19    12    22    1
    20    13    15   ar
    21    13    23    1
    22    14    16   ar
    23    14    24    1
    24    15    17   ar
    25    15    25    1
    26    16    18    1
    27    17    19    1
