@<TRIPOS>MOLECULE
IMPHY008323
 76 80 0 0 0
SMALL
GASTEIGER

@<TRIPOS>ATOM
      1 O           7.7289   -0.6141    0.0000 O.3     1  UNL1       -0.3474
      2 O           6.8671   -2.1047    0.0000 O.3     1  UNL1       -0.3201
      3 O           6.0589    3.4458    0.0000 O.2     1  UNL1       -0.2885
      4 O           4.2576    2.4707    0.0000 O.2     1  UNL1       -0.4917
      5 O           6.9291    3.9257    0.0000 O.2     1  UNL1       -0.2882
      6 O           8.7151    4.9285    0.0000 O.2     1  UNL1       -0.4919
      7 O           5.1350   -2.1047    0.0000 O.3     1  UNL1       -0.3404
      8 O           6.8671   -4.1047    0.0000 O.3     1  UNL1       -0.3841
      9 O           5.1350   -5.1047    0.0000 O.3     1  UNL1       -0.3864
     10 O           3.4030   -4.1047    0.0000 O.3     1  UNL1       -0.3865
     11 O           2.5369   -2.6047    0.0000 O.3     1  UNL1       -0.3924
     12 C           6.8912    0.8944    0.0000 C.3     1  UNL1        0.0118
     13 C           6.9109    1.8942    0.0000 C.3     1  UNL1        0.0462
     14 C           7.7866    2.3770    0.0000 C.3     1  UNL1        0.0475
     15 C           7.7472    0.3774    0.0000 C.3     1  UNL1        0.0685
     16 C           8.6426    1.8601    0.0000 C.3     1  UNL1       -0.0219
     17 C           5.9869    0.3774    0.0000 C.3     1  UNL1       -0.0033
     18 C           8.6229    0.8603    0.0000 C.3     1  UNL1       -0.0219
     19 C           6.0052   -0.6141    0.0000 C.3     1  UNL1        0.0057
     20 C           6.0352    1.4113    0.0000 C.3     1  UNL1       -0.0560
     21 C           6.0277    2.4463    0.0000 C.2     1  UNL1        0.2019
     22 C           5.0911    0.9090    0.0000 C.2     1  UNL1       -0.0237
     23 C           9.5624    2.3489    0.0000 C.3     1  UNL1       -0.0271
     24 C           6.9306    2.8940    0.0000 C.3     1  UNL1       -0.0514
     25 C           6.8671   -1.1047    0.0000 C.3     1  UNL1        0.1632
     26 C           7.7910    3.4186    0.0000 C.2     1  UNL1        0.2038
     27 C           5.1116    1.9504    0.0000 C.2     1  UNL1        0.1619
     28 C           9.5910    3.3901    0.0000 C.2     1  UNL1       -0.0385
     29 C           8.6993    3.9286    0.0000 C.2     1  UNL1        0.1590
     30 C           4.2173    0.4228    0.0000 C.3     1  UNL1       -0.0397
     31 C           6.0010   -2.6047    0.0000 C.3     1  UNL1        0.1908
     32 C           6.0010   -3.6047    0.0000 C.3     1  UNL1        0.1342
     33 C           3.3801    1.9912    0.0000 C.3     1  UNL1        0.0789
     34 C           5.1350   -4.1047    0.0000 C.3     1  UNL1        0.1141
     35 C           4.2690   -2.6047    0.0000 C.3     1  UNL1        0.1130
     36 C           4.2690   -3.6047    0.0000 C.3     1  UNL1        0.1119
     37 C           9.5890    5.4147    0.0000 C.3     1  UNL1        0.0789
     38 C           3.4030   -2.1047    0.0000 C.3     1  UNL1        0.0730
     39 H           7.6385    1.4548    0.0000 H       1  UNL1        0.0398
     40 H           8.4751   -0.0616    0.0000 H       1  UNL1        0.0603
     41 H           9.3668    1.4150    0.0000 H       1  UNL1        0.0314
     42 H           5.2522   -0.0500    0.0000 H       1  UNL1        0.0355
     43 H           8.8235    0.2736    0.0000 H       1  UNL1        0.0293
     44 H           9.2355    0.9559    0.0000 H       1  UNL1        0.0293
     45 H           5.3931   -0.5152    0.0000 H       1  UNL1        0.0320
     46 H           5.7991   -1.1989    0.0000 H       1  UNL1        0.0320
     47 H           6.3557    1.9420    0.0000 H       1  UNL1        0.0236
     48 H           5.5045    1.7318    0.0000 H       1  UNL1        0.0236
     49 H           5.7147    0.8806    0.0000 H       1  UNL1        0.0236
     50 H           9.7554    1.7597    0.0000 H       1  UNL1        0.0312
     51 H          10.1759    2.4382    0.0000 H       1  UNL1        0.0312
     52 H           7.2511    3.4247    0.0000 H       1  UNL1        0.0239
     53 H           6.3999    3.2145    0.0000 H       1  UNL1        0.0239
     54 H           6.6101    2.3632    0.0000 H       1  UNL1        0.0239
     55 H           6.3311   -1.4164    0.0000 H       1  UNL1        0.0911
     56 H          10.1350    3.6874    0.0000 H       1  UNL1        0.0609
     57 H           3.9158    0.9645    0.0000 H       1  UNL1        0.0276
     58 H           3.6755    0.1213    0.0000 H       1  UNL1        0.0276
     59 H           4.5188   -0.1190    0.0000 H       1  UNL1        0.0276
     60 H           6.0010   -1.9847    0.0000 H       1  UNL1        0.0938
     61 H           6.5380   -3.2947    0.0000 H       1  UNL1        0.0671
     62 H           3.0828    2.5353    0.0000 H       1  UNL1        0.0660
     63 H           2.8360    1.6939    0.0000 H       1  UNL1        0.0660
     64 H           3.6774    1.4471    0.0000 H       1  UNL1        0.0660
     65 H           5.6720   -4.4147    0.0000 H       1  UNL1        0.0648
     66 H           4.2690   -1.9847    0.0000 H       1  UNL1        0.0647
     67 H           3.7320   -3.2947    0.0000 H       1  UNL1        0.0647
     68 H           9.8904    4.8729    0.0000 H       1  UNL1        0.0660
     69 H          10.1308    5.7162    0.0000 H       1  UNL1        0.0660
     70 H           9.2875    5.9565    0.0000 H       1  UNL1        0.0660
     71 H           6.8671   -4.7247    0.0000 H       1  UNL1        0.2101
     72 H           3.8015   -1.6298    0.0000 H       1  UNL1        0.0584
     73 H           3.0044   -1.6298    0.0000 H       1  UNL1        0.0584
     74 H           4.5981   -5.4147    0.0000 H       1  UNL1        0.2100
     75 H           3.4030   -4.7247    0.0000 H       1  UNL1        0.2100
     76 H           2.0000   -2.2947    0.0000 H       1  UNL1        0.2095
@<TRIPOS>BOND
     1     1    15    1
     2     1    25    1
     3    25     2    1
     4    31     2    1
     5     3    21    2
     6     4    27    1
     7     4    33    1
     8     5    26    2
     9     6    29    1
    10     6    37    1
    11     7    31    1
    12     7    35    1
    13    32     8    1
    14     8    71    1
    15    34     9    1
    16     9    74    1
    17    36    10    1
    18    10    75    1
    19    11    38    1
    20    11    76    1
    21    12    13    1
    22    12    15    1
    23    12    17    1
    24    12    20    1
    25    13    14    1
    26    13    21    1
    27    13    39    1
    28    14    16    1
    29    14    24    1
    30    14    26    1
    31    15    18    1
    32    15    40    1
    33    16    18    1
    34    16    23    1
    35    16    41    1
    36    17    19    1
    37    17    22    1
    38    17    42    1
    39    18    43    1
    40    18    44    1
    41    19    25    1
    42    19    45    1
    43    19    46    1
    44    20    47    1
    45    20    48    1
    46    20    49    1
    47    21    27    1
    48    22    27    2
    49    22    30    1
    50    23    28    1
    51    23    50    1
    52    23    51    1
    53    24    52    1
    54    24    53    1
    55    24    54    1
    56    25    55    1
    57    26    29    1
    58    28    29    2
    59    28    56    1
    60    30    57    1
    61    30    58    1
    62    30    59    1
    63    31    32    1
    64    31    60    1
    65    32    34    1
    66    32    61    1
    67    33    62    1
    68    33    63    1
    69    33    64    1
    70    34    36    1
    71    34    65    1
    72    35    36    1
    73    35    38    1
    74    35    66    1
    75    36    67    1
    76    37    68    1
    77    37    69    1
    78    37    70    1
    79    38    72    1
    80    38    73    1
