@<TRIPOS>MOLECULE
IMPHY009667
 103 108 0 0 0
SMALL
GASTEIGER

@<TRIPOS>ATOM
      1 O           6.8671   -3.3322    0.0000 O.3     1  UNL1       -0.3448
      2 O           8.6424    6.0222    0.0000 O.3     1  UNL1       -0.3912
      3 O           9.3112   -2.6406    0.0000 O.3     1  UNL1       -0.3944
      4 O           5.1350   -3.3322    0.0000 O.3     1  UNL1       -0.3315
      5 O           6.8671   -5.3322    0.0000 O.3     1  UNL1       -0.3841
      6 O           5.1350   -6.3322    0.0000 O.3     1  UNL1       -0.3864
      7 O           3.4030   -5.3322    0.0000 O.3     1  UNL1       -0.3860
      8 O           2.5369   -3.8322    0.0000 O.3     1  UNL1       -0.4788
      9 O           3.4030   -2.3322    0.0000 O.2     1  UNL1       -0.2480
     10 C           7.7681    1.3680    0.0000 C.3     1  UNL1       -0.0194
     11 C           6.9040    0.8646    0.0000 C.3     1  UNL1       -0.0257
     12 C           6.8920   -0.1769    0.0000 C.3     1  UNL1       -0.0249
     13 C           7.7643    2.3680    0.0000 C.3     1  UNL1       -0.0051
     14 C           7.7920   -0.7012    0.0000 C.3     1  UNL1       -0.0255
     15 C           8.6801    0.8646    0.0000 C.3     1  UNL1       -0.0463
     16 C           6.8963    2.8646    0.0000 C.2     1  UNL1       -0.0633
     17 C           7.8046   -1.7861    0.0000 C.3     1  UNL1        0.0206
     18 C           8.6921   -0.1769    0.0000 C.3     1  UNL1       -0.0485
     19 C           6.8762    3.9061    0.0000 C.3     1  UNL1       -0.0111
     20 C           7.7722    4.4373    0.0000 C.3     1  UNL1        0.0005
     21 C           6.0361    1.3613    0.0000 C.3     1  UNL1       -0.0306
     22 C           8.6723    2.8783    0.0000 C.3     1  UNL1       -0.0428
     23 C           5.9421   -0.7012    0.0000 C.3     1  UNL1       -0.0447
     24 C           8.6763    3.9199    0.0000 C.3     1  UNL1       -0.0439
     25 C           8.7522    1.5454    0.0000 C.3     1  UNL1       -0.0585
     26 C           6.8671   -2.3322    0.0000 C.3     1  UNL1        0.0695
     27 C           6.0322    2.3613    0.0000 C.2     1  UNL1       -0.0836
     28 C           6.0279    0.3264    0.0000 C.3     1  UNL1       -0.0590
     29 C           5.9295   -1.7861    0.0000 C.3     1  UNL1       -0.0254
     30 C           8.7497    2.1981    0.0000 C.3     1  UNL1       -0.0553
     31 C           5.9223    4.4230    0.0000 C.3     1  UNL1       -0.0406
     32 C           7.7764    5.5222    0.0000 C.3     1  UNL1        0.0616
     33 C           5.9014    5.5078    0.0000 C.3     1  UNL1       -0.0320
     34 C           6.8347    6.0611    0.0000 C.3     1  UNL1       -0.0211
     35 C           8.8046   -1.7784    0.0000 C.3     1  UNL1        0.0522
     36 C           8.3113   -2.6483    0.0000 C.3     1  UNL1       -0.0548
     37 C           8.6324    4.9473    0.0000 C.3     1  UNL1       -0.0567
     38 C           5.3881    6.3660    0.0000 C.3     1  UNL1       -0.0597
     39 C           4.9015    5.4924    0.0000 C.3     1  UNL1       -0.0597
     40 C           6.0010   -3.8322    0.0000 C.3     1  UNL1        0.1888
     41 C           6.0010   -4.8322    0.0000 C.3     1  UNL1        0.1341
     42 C           5.1350   -5.3322    0.0000 C.3     1  UNL1        0.1145
     43 C           4.2690   -3.8322    0.0000 C.3     1  UNL1        0.1859
     44 C           4.2690   -4.8322    0.0000 C.3     1  UNL1        0.1201
     45 C           3.4030   -3.3322    0.0000 C.2     1  UNL1        0.3367
     46 H           7.6385    0.4368    0.0000 H       1  UNL1        0.0315
     47 H           8.5314   -1.1205    0.0000 H       1  UNL1        0.0313
     48 H           9.2921    0.7656    0.0000 H       1  UNL1        0.0271
     49 H           8.8824    1.4507    0.0000 H       1  UNL1        0.0271
     50 H           8.9079   -0.7582    0.0000 H       1  UNL1        0.0268
     51 H           9.3017   -0.0638    0.0000 H       1  UNL1        0.0268
     52 H           6.1502    3.4642    0.0000 H       1  UNL1        0.0352
     53 H           5.4251    1.4666    0.0000 H       1  UNL1        0.0310
     54 H           5.8263    0.7779    0.0000 H       1  UNL1        0.0310
     55 H           8.8791    2.2938    0.0000 H       1  UNL1        0.0274
     56 H           9.2836    2.9820    0.0000 H       1  UNL1        0.0274
     57 H           5.7398   -0.1151    0.0000 H       1  UNL1        0.0271
     58 H           5.3300   -0.8002    0.0000 H       1  UNL1        0.0271
     59 H           9.2868    3.8115    0.0000 H       1  UNL1        0.0272
     60 H           8.8876    4.5028    0.0000 H       1  UNL1        0.0272
     61 H           8.8623    0.9352    0.0000 H       1  UNL1        0.0235
     62 H           9.3624    1.6554    0.0000 H       1  UNL1        0.0235
     63 H           8.6422    2.1556    0.0000 H       1  UNL1        0.0235
     64 H           7.4046   -2.6412    0.0000 H       1  UNL1        0.0603
     65 H           5.4941    2.6692    0.0000 H       1  UNL1        0.0572
     66 H           6.3400    0.8621    0.0000 H       1  UNL1        0.0235
     67 H           5.4922    0.6385    0.0000 H       1  UNL1        0.0235
     68 H           5.7158   -0.2093    0.0000 H       1  UNL1        0.0235
     69 H           5.3199   -1.6730    0.0000 H       1  UNL1        0.0290
     70 H           5.7137   -2.3674    0.0000 H       1  UNL1        0.0290
     71 H           8.6444    1.5871    0.0000 H       1  UNL1        0.0238
     72 H           9.3607    2.0928    0.0000 H       1  UNL1        0.0238
     73 H           8.8550    2.8091    0.0000 H       1  UNL1        0.0238
     74 H           5.3095    4.5173    0.0000 H       1  UNL1        0.0276
     75 H           5.7246    3.8354    0.0000 H       1  UNL1        0.0276
     76 H           8.3128    5.2112    0.0000 H       1  UNL1        0.0599
     77 H           7.2302    6.5386    0.0000 H       1  UNL1        0.0295
     78 H           6.4319    6.5325    0.0000 H       1  UNL1        0.0295
     79 H           9.3855   -1.5619    0.0000 H       1  UNL1        0.0563
     80 H           8.6922   -1.1687    0.0000 H       1  UNL1        0.0563
     81 H           7.7767   -2.9624    0.0000 H       1  UNL1        0.0237
     82 H           8.6254   -3.1828    0.0000 H       1  UNL1        0.0237
     83 H           8.8458   -2.3342    0.0000 H       1  UNL1        0.0237
     84 H           8.9486    4.4139    0.0000 H       1  UNL1        0.0236
     85 H           9.1657    5.2634    0.0000 H       1  UNL1        0.0236
     86 H           8.3162    5.4806    0.0000 H       1  UNL1        0.0236
     87 H           5.9202    6.6842    0.0000 H       1  UNL1        0.0235
     88 H           5.0699    6.8981    0.0000 H       1  UNL1        0.0235
     89 H           4.8560    6.0478    0.0000 H       1  UNL1        0.0235
     90 H           4.8920    6.1123    0.0000 H       1  UNL1        0.0235
     91 H           4.2816    5.4828    0.0000 H       1  UNL1        0.0235
     92 H           4.9111    4.8725    0.0000 H       1  UNL1        0.0235
     93 H           8.6424    6.6422    0.0000 H       1  UNL1        0.2098
     94 H           6.0010   -3.2122    0.0000 H       1  UNL1        0.0938
     95 H           9.9312   -2.6358    0.0000 H       1  UNL1        0.2094
     96 H           6.0010   -5.4522    0.0000 H       1  UNL1        0.0671
     97 H           4.5981   -5.6422    0.0000 H       1  UNL1        0.0648
     98 H           4.2690   -3.2122    0.0000 H       1  UNL1        0.0741
     99 H           3.7320   -4.5222    0.0000 H       1  UNL1        0.0652
    100 H           7.4040   -5.0222    0.0000 H       1  UNL1        0.2101
    101 H           5.6720   -6.6422    0.0000 H       1  UNL1        0.2100
    102 H           3.4030   -5.9522    0.0000 H       1  UNL1        0.2100
    103 H           2.0000   -3.5222    0.0000 H       1  UNL1        0.2951
@<TRIPOS>BOND
     1    26     1    1
     2    40     1    1
     3    32     2    1
     4     2    93    1
     5     3    35    1
     6     3    95    1
     7     4    40    1
     8     4    43    1
     9    41     5    1
    10     5   100    1
    11    42     6    1
    12     6   101    1
    13    44     7    1
    14     7   102    1
    15     8    45    1
    16     8   103    1
    17     9    45    2
    18    10    11    1
    19    10    13    1
    20    10    15    1
    21    10    25    1
    22    11    12    1
    23    11    21    1
    24    11    46    1
    25    12    14    1
    26    12    23    1
    27    12    28    1
    28    13    16    1
    29    13    22    1
    30    13    30    1
    31    14    17    1
    32    14    18    1
    33    14    47    1
    34    15    18    1
    35    15    48    1
    36    15    49    1
    37    16    19    1
    38    16    27    2
    39    17    26    1
    40    17    35    1
    41    17    36    1
    42    18    50    1
    43    18    51    1
    44    19    20    1
    45    19    31    1
    46    19    52    1
    47    20    24    1
    48    20    32    1
    49    20    37    1
    50    21    27    1
    51    21    53    1
    52    21    54    1
    53    22    24    1
    54    22    55    1
    55    22    56    1
    56    23    29    1
    57    23    57    1
    58    23    58    1
    59    24    59    1
    60    24    60    1
    61    25    61    1
    62    25    62    1
    63    25    63    1
    64    26    29    1
    65    26    64    1
    66    27    65    1
    67    28    66    1
    68    28    67    1
    69    28    68    1
    70    29    69    1
    71    29    70    1
    72    30    71    1
    73    30    72    1
    74    30    73    1
    75    31    33    1
    76    31    74    1
    77    31    75    1
    78    32    34    1
    79    32    76    1
    80    33    34    1
    81    33    38    1
    82    33    39    1
    83    34    77    1
    84    34    78    1
    85    35    79    1
    86    35    80    1
    87    36    81    1
    88    36    82    1
    89    36    83    1
    90    37    84    1
    91    37    85    1
    92    37    86    1
    93    38    87    1
    94    38    88    1
    95    38    89    1
    96    39    90    1
    97    39    91    1
    98    39    92    1
    99    40    41    1
   100    40    94    1
   101    41    42    1
   102    41    96    1
   103    42    44    1
   104    42    97    1
   105    43    44    1
   106    43    45    1
   107    43    98    1
   108    44    99    1
