@<TRIPOS>MOLECULE
IMPHY010796
 53 59 0 0 0
SMALL
GASTEIGER

@<TRIPOS>ATOM
      1 O           4.7271   -2.8510    0.0000 O.3     1  UNL1       -0.4685
      2 O           7.1962   -2.1840    0.0000 O.3     1  UNL1       -0.4489
      3 O           7.1962   -3.1840    0.0000 O.3     1  UNL1       -0.1721
      4 O           5.4423    0.8475    0.0000 O.3     1  UNL1       -0.2866
      5 O           4.5981   -0.6840    0.0000 O.2     1  UNL1       -0.2872
      6 O           8.9821    0.8611    0.0000 O.3     1  UNL1       -0.2867
      7 O           8.7021    3.4891    0.0000 O.2     1  UNL1       -0.2912
      8 O           5.6954    5.2096    0.0000 O.3     1  UNL1       -0.2868
      9 O           4.8861   -6.4523    0.0000 O.3     1  UNL1       -0.2865
     10 O           9.1987    4.3571    0.0000 O.3     1  UNL1       -0.2864
     11 O           8.6887    6.9532    0.0000 O.3     1  UNL1       -0.2865
     12 O          12.2054    2.6366    0.0000 O.3     1  UNL1       -0.2865
     13 C           7.2054    2.6173    0.0000 C.3     1  UNL1        0.0704
     14 C           6.7088    1.7494    0.0000 C.3     1  UNL1        0.0313
     15 C           6.7021    3.4814    0.0000 C.3     1  UNL1        0.0371
     16 C           5.4641   -2.1840    0.0000 C.3     1  UNL1        0.2550
     17 C           6.3301   -2.6840    0.0000 C.3     1  UNL1        0.3199
     18 C           5.7021    3.4776    0.0000 C.3     1  UNL1        0.0266
     19 C           7.2121    0.8853    0.0000 C.ar    1  UNL1        0.0557
     20 C           5.7088    1.7455    0.0000 C.2     1  UNL1       -0.0345
     21 C           5.4641   -1.1840    0.0000 C.2     1  UNL1        0.2216
     22 C           5.2054    2.6096    0.0000 C.2     1  UNL1       -0.0478
     23 C           6.3301   -0.6840    0.0000 C.ar    1  UNL1        0.1111
     24 C           6.1209   -3.6558    0.0000 C.ar    1  UNL1        0.0811
     25 C           4.5981   -1.6840    0.0000 C.3     1  UNL1        0.0797
     26 C           6.3141    0.3575    0.0000 C.ar    1  UNL1        0.2005
     27 C           7.1988    4.3494    0.0000 C.ar    1  UNL1        0.0174
     28 C           7.1962   -1.1840    0.0000 C.ar    1  UNL1        0.1507
     29 C           8.2054    2.6212    0.0000 C.2     1  UNL1        0.1764
     30 C           5.1322   -3.7588    0.0000 C.ar    1  UNL1        0.1442
     31 C           8.1142    0.3645    0.0000 C.ar    1  UNL1        0.1978
     32 C           8.1062   -0.6771    0.0000 C.ar    1  UNL1        0.0790
     33 C           4.2055    2.6058    0.0000 C.3     1  UNL1        0.0260
     34 C           6.7417   -4.4845    0.0000 C.ar    1  UNL1        0.0081
     35 C           3.7321   -2.1840    0.0000 C.2     1  UNL1       -0.0303
     36 C           9.2054    2.6250    0.0000 C.ar    1  UNL1        0.0738
     37 C           6.6954    5.2135    0.0000 C.ar    1  UNL1        0.1949
     38 C           8.1987    4.3532    0.0000 C.ar    1  UNL1        0.0022
     39 C           4.6957   -4.6978    0.0000 C.ar    1  UNL1        0.0788
     40 C           6.3270   -5.4333    0.0000 C.ar    1  UNL1        0.0421
     41 C           5.2971   -5.5407    0.0000 C.ar    1  UNL1        0.1988
     42 C           2.8660   -1.6840    0.0000 C.2     1  UNL1       -0.0477
     43 C           7.1921    6.0814    0.0000 C.ar    1  UNL1        0.0837
     44 C           8.6954    5.2212    0.0000 C.ar    1  UNL1        0.0419
     45 C           9.7021    3.4930    0.0000 C.ar    1  UNL1        0.2016
     46 C           9.7088    1.7610    0.0000 C.ar    1  UNL1        0.0093
     47 C           8.1921    6.0853    0.0000 C.ar    1  UNL1        0.1989
     48 C           2.0000   -2.1840    0.0000 C.3     1  UNL1        0.0260
     49 C           2.8660   -0.6840    0.0000 C.3     1  UNL1        0.0260
     50 C          10.7021    3.4968    0.0000 C.ar    1  UNL1        0.0841
     51 C          10.7088    1.7649    0.0000 C.ar    1  UNL1        0.0423
     52 C          11.2054    2.6328    0.0000 C.ar    1  UNL1        0.1989
     53 H           6.3114    1.0550    0.0000 H       1  UNL1        0.0410
@<TRIPOS>BOND
     1     1    16    1
     2     1    30    1
     3     2    17    1
     4     2    28    1
     5     3    17    1
     6     4    26    1
     7     5    21    2
     8     6    31    1
     9     7    29    2
    10     8    37    1
    11     9    41    1
    12    10    45    1
    13    11    47    1
    14    12    52    1
    15    13    14    1
    16    13    15    1
    17    13    29    1
    18    14    19    1
    19    14    20    1
    20    14    53    1
    21    15    18    1
    22    15    27    1
    23    16    17    1
    24    16    21    1
    25    16    25    1
    26    17    24    1
    27    18    22    1
    28    19    26   ar
    29    19    31   ar
    30    20    22    2
    31    21    23    1
    32    22    33    1
    33    23    26   ar
    34    23    28   ar
    35    24    30   ar
    36    24    34   ar
    37    25    35    1
    38    27    37   ar
    39    27    38   ar
    40    28    32   ar
    41    29    36    1
    42    30    39   ar
    43    31    32   ar
    44    34    40   ar
    45    35    42    2
    46    36    45   ar
    47    36    46   ar
    48    37    43   ar
    49    38    44   ar
    50    39    41   ar
    51    40    41   ar
    52    42    48    1
    53    42    49    1
    54    43    47   ar
    55    44    47   ar
    56    45    50   ar
    57    46    51   ar
    58    50    52   ar
    59    51    52   ar
