@<TRIPOS>MOLECULE
IMPHY012018
 16 15 0 0 0
SMALL
GASTEIGER

@<TRIPOS>ATOM
      1 O           2.5369    0.7500    0.0000 O.3     1  UNL1       -0.4806
      2 O           3.4030   -0.7500    0.0000 O.2     1  UNL1       -0.2510
      3 N           6.8671    0.2500    0.0000 N.3     1  UNL1       -0.3300
      4 C           5.1350    0.2500    0.0000 C.3     1  UNL1       -0.0306
      5 C           4.2690    0.7500    0.0000 C.3     1  UNL1        0.0459
      6 C           6.0010    0.7500    0.0000 C.3     1  UNL1       -0.0064
      7 C           3.4030    0.2500    0.0000 C.2     1  UNL1        0.3047
      8 H           4.7365   -0.2249    0.0000 H       1  UNL1        0.0283
      9 H           5.5335   -0.2249    0.0000 H       1  UNL1        0.0283
     10 H           4.6675    1.2250    0.0000 H       1  UNL1        0.0378
     11 H           3.8705    1.2250    0.0000 H       1  UNL1        0.0378
     12 H           6.3996    1.2250    0.0000 H       1  UNL1        0.0422
     13 H           5.6025    1.2250    0.0000 H       1  UNL1        0.0422
     14 H           7.4040    0.5600    0.0000 H       1  UNL1        0.1182
     15 H           6.8671   -0.3700    0.0000 H       1  UNL1        0.1182
     16 H           2.0000    0.4400    0.0000 H       1  UNL1        0.2951
@<TRIPOS>BOND
     1     1     7    1
     2     1    16    1
     3     2     7    2
     4     3     6    1
     5     3    14    1
     6     3    15    1
     7     4     5    1
     8     4     6    1
     9     4     8    1
    10     4     9    1
    11     5     7    1
    12     5    10    1
    13     5    11    1
    14     6    12    1
    15     6    13    1
