@<TRIPOS>MOLECULE
IMPHY003993
 45 47 0 0 0
SMALL
GASTEIGER

@<TRIPOS>ATOM
      1 O           8.2065   -1.5511    0.0000 O.3     1  UNL1       -0.4853
      2 O          10.7901   -0.7464    0.0000 O.3     1  UNL1       -0.3855
      3 O           4.6342   -1.7811    0.0000 O.2     1  UNL1       -0.4218
      4 O           2.8641   -1.7706    0.0000 O.2     1  UNL1       -0.2449
      5 C           8.7901   -0.7464    0.0000 C.3     1  UNL1        0.1322
      6 C           9.7901   -0.7464    0.0000 C.3     1  UNL1        0.0974
      7 C           8.2065    0.0583    0.0000 C.3     1  UNL1        0.0157
      8 C           7.2602   -0.2464    0.0000 C.ar    1  UNL1       -0.0013
      9 C           7.2602   -1.2464    0.0000 C.ar    1  UNL1        0.1279
     10 C           9.7901   -1.7464    0.0000 C.3     1  UNL1       -0.0328
     11 C           9.7901    0.2536    0.0000 C.3     1  UNL1       -0.0328
     12 C           6.3942    0.2536    0.0000 C.ar    1  UNL1       -0.0443
     13 C           5.5282   -0.2464    0.0000 C.ar    1  UNL1        0.0184
     14 C           6.3942   -1.7464    0.0000 C.ar    1  UNL1        0.0234
     15 C           2.8641    0.2777    0.0000 C.3     1  UNL1        0.0146
     16 C           5.5282   -1.2464    0.0000 C.ar    1  UNL1        0.1426
     17 C           3.7282   -0.2256    0.0000 C.ar    1  UNL1        0.0470
     18 C           4.6342    0.2883    0.0000 C.ar    1  UNL1       -0.0403
     19 C           3.7282   -1.2672    0.0000 C.ar    1  UNL1        0.3413
     20 C           3.3674    1.1418    0.0000 C.3     1  UNL1       -0.0521
     21 C           2.3608   -0.5864    0.0000 C.3     1  UNL1       -0.0521
     22 C           2.0000    0.7811    0.0000 C.2     1  UNL1       -0.0809
     23 C           2.0038    1.7811    0.0000 C.2     1  UNL1       -0.1018
     24 H           9.1763   -1.5036    0.0000 H       1  UNL1        0.0765
     25 H           8.7438    0.3676    0.0000 H       1  UNL1        0.0351
     26 H           7.9554    0.6252    0.0000 H       1  UNL1        0.0351
     27 H           9.1701   -1.7464    0.0000 H       1  UNL1        0.0258
     28 H           9.7901   -2.3664    0.0000 H       1  UNL1        0.0258
     29 H          10.4101   -1.7464    0.0000 H       1  UNL1        0.0258
     30 H          10.4101    0.2536    0.0000 H       1  UNL1        0.0258
     31 H           9.7901    0.8736    0.0000 H       1  UNL1        0.0258
     32 H           9.1701    0.2536    0.0000 H       1  UNL1        0.0258
     33 H           6.3942    0.8736    0.0000 H       1  UNL1        0.0628
     34 H           6.3942   -2.3664    0.0000 H       1  UNL1        0.0691
     35 H           4.6414    0.9082    0.0000 H       1  UNL1        0.0630
     36 H          11.1001   -1.2833    0.0000 H       1  UNL1        0.2103
     37 H           1.8250   -0.2743    0.0000 H       1  UNL1        0.0241
     38 H           2.0487   -1.1221    0.0000 H       1  UNL1        0.0241
     39 H           2.8965   -0.8984    0.0000 H       1  UNL1        0.0241
     40 H           3.9032    0.8298    0.0000 H       1  UNL1        0.0241
     41 H           3.6795    1.6776    0.0000 H       1  UNL1        0.0241
     42 H           2.8317    1.4539    0.0000 H       1  UNL1        0.0241
     43 H           1.4619    0.4731    0.0000 H       1  UNL1        0.0575
     44 H           2.5420    2.0890    0.0000 H       1  UNL1        0.0532
     45 H           1.4681    2.0931    0.0000 H       1  UNL1        0.0532
@<TRIPOS>BOND
     1     1     5    1
     2     1     9    1
     3     2     6    1
     4     2    36    1
     5     3    16   ar
     6     3    19   ar
     7     4    19    2
     8     5     6    1
     9     5     7    1
    10     5    24    1
    11     6    10    1
    12     6    11    1
    13     7     8    1
    14     7    25    1
    15     7    26    1
    16     8     9   ar
    17     8    12   ar
    18     9    14   ar
    19    10    27    1
    20    10    28    1
    21    10    29    1
    22    11    30    1
    23    11    31    1
    24    11    32    1
    25    12    13   ar
    26    12    33    1
    27    13    16   ar
    28    13    18   ar
    29    14    16   ar
    30    14    34    1
    31    15    17    1
    32    15    20    1
    33    15    21    1
    34    15    22    1
    35    17    18   ar
    36    17    19   ar
    37    18    35    1
    38    20    40    1
    39    20    41    1
    40    20    42    1
    41    21    37    1
    42    21    38    1
    43    21    39    1
    44    22    23    2
    45    22    43    1
    46    23    44    1
    47    23    45    1
