@<TRIPOS>MOLECULE
IMPHY014003
 35 38 0 0 0
SMALL
GASTEIGER

@<TRIPOS>ATOM
      1 O           2.0000    1.6246    0.0000 O.3     1  UNL1       -0.3646
      2 O           5.1510    2.5191    0.0000 O.2     1  UNL1       -0.4670
      3 O           5.6253   -1.0101    0.0000 O.3     1  UNL1       -0.4490
      4 O           4.7432   -2.5191    0.0000 O.2     1  UNL1       -0.2453
      5 C           2.9339    1.2658    0.0000 C.3     1  UNL1        0.1000
      6 C           2.1568    0.6365    0.0000 C.3     1  UNL1        0.0888
      7 C           3.9284    1.1613    0.0000 C.3     1  UNL1        0.0372
      8 C           2.3132   -0.3512    0.0000 C.3     1  UNL1       -0.0197
      9 C           3.1675    2.2382    0.0000 C.3     1  UNL1       -0.0329
     10 C           3.3009   -0.1947    0.0000 C.3     1  UNL1       -0.0187
     11 C           4.8420    1.5681    0.0000 C.ar    1  UNL1        0.1149
     12 C           5.6510    0.9803    0.0000 C.ar    1  UNL1        0.0405
     13 C           5.5465   -0.0142    0.0000 C.3     1  UNL1        0.1508
     14 C           3.9302   -0.9719    0.0000 C.2     1  UNL1        0.0366
     15 C           4.9179   -0.8154    0.0000 C.2     1  UNL1       -0.0294
     16 C           6.4600    1.5681    0.0000 C.ar    1  UNL1       -0.0055
     17 C           4.7658   -1.5194    0.0000 C.2     1  UNL1        0.3358
     18 C           6.1510    2.5191    0.0000 C.ar    1  UNL1        0.0954
     19 C           7.4111    1.2590    0.0000 C.3     1  UNL1       -0.0363
     20 H           1.5444    0.5395    0.0000 H       1  UNL1        0.0625
     21 H           3.6566    0.6041    0.0000 H       1  UNL1        0.0372
     22 H           3.8314    1.7737    0.0000 H       1  UNL1        0.0372
     23 H           1.7008   -0.4481    0.0000 H       1  UNL1        0.0294
     24 H           2.4102   -0.9635    0.0000 H       1  UNL1        0.0294
     25 H           3.7703    2.0934    0.0000 H       1  UNL1        0.0258
     26 H           3.3123    2.8410    0.0000 H       1  UNL1        0.0258
     27 H           2.5646    2.3830    0.0000 H       1  UNL1        0.0258
     28 H           3.8431    0.1059    0.0000 H       1  UNL1        0.0316
     29 H           3.0990    0.3915    0.0000 H       1  UNL1        0.0316
     30 H           6.1664   -0.0222    0.0000 H       1  UNL1        0.0833
     31 H           5.2320   -1.3500    0.0000 H       1  UNL1        0.0617
     32 H           6.5154    3.0207    0.0000 H       1  UNL1        0.1032
     33 H           7.2195    0.6694    0.0000 H       1  UNL1        0.0279
     34 H           8.0007    1.0674    0.0000 H       1  UNL1        0.0279
     35 H           7.6026    1.8487    0.0000 H       1  UNL1        0.0279
@<TRIPOS>BOND
     1     1     5    1
     2     1     6    1
     3     2    11   ar
     4     2    18   ar
     5     3    13    1
     6     3    17    1
     7     4    17    2
     8     5     6    1
     9     5     7    1
    10     5     9    1
    11     6     8    1
    12     6    20    1
    13     7    11    1
    14     7    21    1
    15     7    22    1
    16     8    10    1
    17     8    23    1
    18     8    24    1
    19     9    25    1
    20     9    26    1
    21     9    27    1
    22    10    14    1
    23    10    28    1
    24    10    29    1
    25    11    12   ar
    26    12    13    1
    27    12    16   ar
    28    13    15    1
    29    13    30    1
    30    14    15    2
    31    14    17    1
    32    15    31    1
    33    16    18   ar
    34    16    19    1
    35    18    32    1
    36    19    33    1
    37    19    34    1
    38    19    35    1
