@<TRIPOS>MOLECULE
IMPHY013321
 114 121 0 0 0
SMALL
GASTEIGER

@<TRIPOS>ATOM
      1 O           8.6192    5.5403    0.0000 O.3     1  UNL1       -0.3448
      2 O           6.8468    6.4351    0.0000 O.3     1  UNL1       -0.3480
      3 O           7.1962   -2.7038    0.0000 O.3     1  UNL1       -0.3451
      4 O           5.4641   -2.7038    0.0000 O.3     1  UNL1       -0.3405
      5 O           7.1962   -4.7038    0.0000 O.3     1  UNL1       -0.3841
      6 O           5.4641   -5.7038    0.0000 O.3     1  UNL1       -0.3864
      7 O           3.7320   -4.7038    0.0000 O.3     1  UNL1       -0.3401
      8 O           3.7320   -1.7038    0.0000 O.3     1  UNL1       -0.3924
      9 O           4.5981   -6.2038    0.0000 O.3     1  UNL1       -0.3405
     10 O           2.0000   -5.7038    0.0000 O.3     1  UNL1       -0.3841
     11 O           2.0000   -7.7038    0.0000 O.3     1  UNL1       -0.3864
     12 O           3.7320   -8.7038    0.0000 O.3     1  UNL1       -0.3865
     13 O           6.3301   -7.2038    0.0000 O.3     1  UNL1       -0.3924
     14 C           7.2254    3.4931    0.0000 C.3     1  UNL1       -0.0233
     15 C           8.0934    2.9965    0.0000 C.3     1  UNL1       -0.0295
     16 C           7.4309    4.4657    0.0000 C.3     1  UNL1       -0.0015
     17 C           8.0972    1.9965    0.0000 C.3     1  UNL1       -0.0306
     18 C           8.4192    4.5726    0.0000 C.3     1  UNL1        0.0660
     19 C           7.2331    1.4931    0.0000 C.3     1  UNL1       -0.0285
     20 C           8.8278    3.6664    0.0000 C.3     1  UNL1       -0.0226
     21 C           6.3613    2.9898    0.0000 C.3     1  UNL1       -0.0467
     22 C           7.0286    5.3683    0.0000 C.3     1  UNL1        0.0160
     23 C           6.3652    1.9898    0.0000 C.3     1  UNL1       -0.0486
     24 C           7.2211    0.4516    0.0000 C.3     1  UNL1       -0.0078
     25 C           7.7615    6.0311    0.0000 C.3     1  UNL1        0.1732
     26 C           6.3575    3.9898    0.0000 C.3     1  UNL1       -0.0590
     27 C           9.0092    1.4931    0.0000 C.3     1  UNL1       -0.0311
     28 C           8.1211   -0.0727    0.0000 C.2     1  UNL1       -0.0648
     29 C           6.2712   -0.0727    0.0000 C.3     1  UNL1       -0.0413
     30 C           6.0502    5.5750    0.0000 C.3     1  UNL1       -0.0572
     31 C           8.5688    6.6213    0.0000 C.3     1  UNL1        0.0020
     32 C           9.0212    0.4516    0.0000 C.2     1  UNL1       -0.0839
     33 C           6.3570    0.9549    0.0000 C.3     1  UNL1       -0.0556
     34 C           8.1337   -1.1576    0.0000 C.3     1  UNL1       -0.0047
     35 C           6.2586   -1.1576    0.0000 C.3     1  UNL1       -0.0254
     36 C           7.1962   -1.7038    0.0000 C.3     1  UNL1        0.0655
     37 C           8.4613    7.6155    0.0000 C.3     1  UNL1       -0.0435
     38 C           7.5465    8.0195    0.0000 C.3     1  UNL1       -0.0201
     39 C           6.7393    7.4293    0.0000 C.3     1  UNL1        0.0535
     40 C           7.4390    9.0138    0.0000 C.3     1  UNL1       -0.0603
     41 C           6.3301   -3.2038    0.0000 C.3     1  UNL1        0.1882
     42 C           6.3301   -4.2038    0.0000 C.3     1  UNL1        0.1341
     43 C           5.4641   -4.7038    0.0000 C.3     1  UNL1        0.1144
     44 C           4.5981   -3.2038    0.0000 C.3     1  UNL1        0.1134
     45 C           4.5981   -4.2038    0.0000 C.3     1  UNL1        0.1184
     46 C           3.7320   -2.7038    0.0000 C.3     1  UNL1        0.0730
     47 C           3.7320   -5.7038    0.0000 C.3     1  UNL1        0.1884
     48 C           2.8660   -6.2038    0.0000 C.3     1  UNL1        0.1341
     49 C           2.8660   -7.2038    0.0000 C.3     1  UNL1        0.1141
     50 C           4.5981   -7.2038    0.0000 C.3     1  UNL1        0.1130
     51 C           3.7320   -7.7038    0.0000 C.3     1  UNL1        0.1119
     52 C           5.4641   -7.7038    0.0000 C.3     1  UNL1        0.0730
     53 H           8.8716    2.6548    0.0000 H       1  UNL1        0.0310
     54 H           6.5856    4.3762    0.0000 H       1  UNL1        0.0335
     55 H           8.8284    2.4300    0.0000 H       1  UNL1        0.0310
     56 H           9.2641    4.6658    0.0000 H       1  UNL1        0.0600
     57 H           7.9676    1.0653    0.0000 H       1  UNL1        0.0312
     58 H           9.1952    3.1670    0.0000 H       1  UNL1        0.0293
     59 H           9.3631    3.9792    0.0000 H       1  UNL1        0.0293
     60 H           6.1470    3.5716    0.0000 H       1  UNL1        0.0271
     61 H           5.7512    2.8798    0.0000 H       1  UNL1        0.0271
     62 H           6.6388    4.8862    0.0000 H       1  UNL1        0.0354
     63 H           5.7542    2.0951    0.0000 H       1  UNL1        0.0268
     64 H           6.1554    1.4064    0.0000 H       1  UNL1        0.0268
     65 H           6.6654    4.5279    0.0000 H       1  UNL1        0.0235
     66 H           5.8193    4.2977    0.0000 H       1  UNL1        0.0235
     67 H           6.0495    3.4517    0.0000 H       1  UNL1        0.0235
     68 H           9.6212    1.3941    0.0000 H       1  UNL1        0.0310
     69 H           9.2114    2.0792    0.0000 H       1  UNL1        0.0310
     70 H           6.0689    0.5134    0.0000 H       1  UNL1        0.0274
     71 H           5.6591   -0.1717    0.0000 H       1  UNL1        0.0274
     72 H           6.1783    6.1816    0.0000 H       1  UNL1        0.0234
     73 H           5.4436    5.7032    0.0000 H       1  UNL1        0.0234
     74 H           5.9220    4.9684    0.0000 H       1  UNL1        0.0234
     75 H           8.8422    6.0649    0.0000 H       1  UNL1        0.0317
     76 H           9.1643    6.7940    0.0000 H       1  UNL1        0.0317
     77 H           9.5605    0.1457    0.0000 H       1  UNL1        0.0572
     78 H           6.6690    1.4906    0.0000 H       1  UNL1        0.0238
     79 H           5.8212    1.2670    0.0000 H       1  UNL1        0.0238
     80 H           6.0449    0.4192    0.0000 H       1  UNL1        0.0238
     81 H           8.3495   -1.7389    0.0000 H       1  UNL1        0.0335
     82 H           8.7433   -1.0445    0.0000 H       1  UNL1        0.0335
     83 H           5.6490   -1.0445    0.0000 H       1  UNL1        0.0290
     84 H           6.0428   -1.7389    0.0000 H       1  UNL1        0.0290
     85 H           7.7337   -2.0127    0.0000 H       1  UNL1        0.0600
     86 H           9.0799    7.5741    0.0000 H       1  UNL1        0.0270
     87 H           8.6095    8.2176    0.0000 H       1  UNL1        0.0270
     88 H           8.0470    8.3855    0.0000 H       1  UNL1        0.0320
     89 H           6.4658    7.9858    0.0000 H       1  UNL1        0.0563
     90 H           6.1438    7.2567    0.0000 H       1  UNL1        0.0563
     91 H           8.0554    9.0804    0.0000 H       1  UNL1        0.0233
     92 H           7.3724    9.6302    0.0000 H       1  UNL1        0.0233
     93 H           6.8226    8.9471    0.0000 H       1  UNL1        0.0233
     94 H           6.3301   -2.5838    0.0000 H       1  UNL1        0.0937
     95 H           6.3301   -4.8238    0.0000 H       1  UNL1        0.0671
     96 H           4.9272   -5.0138    0.0000 H       1  UNL1        0.0648
     97 H           4.5981   -2.5838    0.0000 H       1  UNL1        0.0647
     98 H           4.5981   -4.8238    0.0000 H       1  UNL1        0.0651
     99 H           7.7331   -4.3938    0.0000 H       1  UNL1        0.2101
    100 H           3.1215   -2.5961    0.0000 H       1  UNL1        0.0584
    101 H           3.5200   -3.2864    0.0000 H       1  UNL1        0.0584
    102 H           6.0010   -6.0138    0.0000 H       1  UNL1        0.2100
    103 H           3.1951   -5.3938    0.0000 H       1  UNL1        0.0938
    104 H           3.1951   -1.3938    0.0000 H       1  UNL1        0.2095
    105 H           2.8660   -5.5838    0.0000 H       1  UNL1        0.0671
    106 H           2.8660   -7.8238    0.0000 H       1  UNL1        0.0648
    107 H           5.1350   -6.8938    0.0000 H       1  UNL1        0.0647
    108 H           4.2690   -8.0138    0.0000 H       1  UNL1        0.0647
    109 H           2.0000   -5.0838    0.0000 H       1  UNL1        0.2101
    110 H           5.0656   -8.1787    0.0000 H       1  UNL1        0.0584
    111 H           5.8626   -8.1787    0.0000 H       1  UNL1        0.0584
    112 H           2.0000   -8.3238    0.0000 H       1  UNL1        0.2100
    113 H           4.2690   -9.0138    0.0000 H       1  UNL1        0.2100
    114 H           6.8671   -7.5138    0.0000 H       1  UNL1        0.2095
@<TRIPOS>BOND
     1     1    18    1
     2    25     1    1
     3     2    25    1
     4     2    39    1
     5    36     3    1
     6    41     3    1
     7     4    41    1
     8     4    44    1
     9    42     5    1
    10     5    99    1
    11    43     6    1
    12     6   102    1
    13    45     7    1
    14    47     7    1
    15     8    46    1
    16     8   104    1
    17     9    47    1
    18     9    50    1
    19    48    10    1
    20    10   109    1
    21    49    11    1
    22    11   112    1
    23    51    12    1
    24    12   113    1
    25    13    52    1
    26    13   114    1
    27    14    15    1
    28    14    16    1
    29    14    21    1
    30    14    26    1
    31    15    17    1
    32    15    20    1
    33    15    53    1
    34    16    18    1
    35    16    22    1
    36    16    54    1
    37    17    19    1
    38    17    27    1
    39    17    55    1
    40    18    20    1
    41    18    56    1
    42    19    23    1
    43    19    24    1
    44    19    57    1
    45    20    58    1
    46    20    59    1
    47    21    23    1
    48    21    60    1
    49    21    61    1
    50    22    25    1
    51    22    30    1
    52    22    62    1
    53    23    63    1
    54    23    64    1
    55    24    28    1
    56    24    29    1
    57    24    33    1
    58    25    31    1
    59    26    65    1
    60    26    66    1
    61    26    67    1
    62    27    32    1
    63    27    68    1
    64    27    69    1
    65    28    32    2
    66    28    34    1
    67    29    35    1
    68    29    70    1
    69    29    71    1
    70    30    72    1
    71    30    73    1
    72    30    74    1
    73    31    37    1
    74    31    75    1
    75    31    76    1
    76    32    77    1
    77    33    78    1
    78    33    79    1
    79    33    80    1
    80    34    36    1
    81    34    81    1
    82    34    82    1
    83    35    36    1
    84    35    83    1
    85    35    84    1
    86    36    85    1
    87    37    38    1
    88    37    86    1
    89    37    87    1
    90    38    39    1
    91    38    40    1
    92    38    88    1
    93    39    89    1
    94    39    90    1
    95    40    91    1
    96    40    92    1
    97    40    93    1
    98    41    42    1
    99    41    94    1
   100    42    43    1
   101    42    95    1
   102    43    45    1
   103    43    96    1
   104    44    45    1
   105    44    46    1
   106    44    97    1
   107    45    98    1
   108    46   100    1
   109    46   101    1
   110    47    48    1
   111    47   103    1
   112    48    49    1
   113    48   105    1
   114    49    51    1
   115    49   106    1
   116    50    51    1
   117    50    52    1
   118    50   107    1
   119    51   108    1
   120    52   110    1
   121    52   111    1
