@<TRIPOS>MOLECULE
IMPHY008515
 45 47 0 0 0
SMALL
GASTEIGER

@<TRIPOS>ATOM
      1 O           8.9942   -1.7312    0.0000 O.2     1  UNL1       -0.4620
      2 O           5.4641   -1.7554    0.0000 O.3     1  UNL1       -0.4878
      3 O           8.9942    1.2688    0.0000 O.2     1  UNL1       -0.2864
      4 O          13.3243    1.7688    0.0000 O.3     1  UNL1       -0.4951
      5 C           8.1282   -0.2312    0.0000 C.ar    1  UNL1        0.0648
      6 C           9.8602   -0.2312    0.0000 C.ar    1  UNL1        0.0643
      7 C           8.1282   -1.2312    0.0000 C.ar    1  UNL1        0.1419
      8 C           8.9942    0.2688    0.0000 C.ar    1  UNL1        0.2001
      9 C          10.7263    0.2688    0.0000 C.ar    1  UNL1       -0.0110
     10 C           7.2342    0.3034    0.0000 C.ar    1  UNL1       -0.0439
     11 C           7.2342   -1.7659    0.0000 C.ar    1  UNL1        0.0231
     12 C           6.3282   -1.2521    0.0000 C.ar    1  UNL1        0.1245
     13 C           9.8602   -1.2312    0.0000 C.ar    1  UNL1        0.1038
     14 C           6.3282   -0.2104    0.0000 C.ar    1  UNL1       -0.0190
     15 C          11.5923   -0.2312    0.0000 C.ar    1  UNL1       -0.0504
     16 C          10.7263    1.2688    0.0000 C.ar    1  UNL1       -0.0504
     17 C           4.5961   -1.2587    0.0000 C.3     1  UNL1        0.1080
     18 C          12.4583    0.2688    0.0000 C.ar    1  UNL1       -0.0194
     19 C          11.5923    1.7688    0.0000 C.ar    1  UNL1       -0.0194
     20 C          12.4583    1.2688    0.0000 C.ar    1  UNL1        0.1201
     21 C           3.7320   -1.7621    0.0000 C.2     1  UNL1       -0.0484
     22 C           2.8641   -1.2654    0.0000 C.2     1  UNL1       -0.0765
     23 C           2.0000   -1.7688    0.0000 C.3     1  UNL1       -0.0439
     24 C           2.8602   -0.2654    0.0000 C.3     1  UNL1       -0.0439
     25 C          14.1904    1.2688    0.0000 C.3     1  UNL1        0.0788
     26 H           7.2414    0.9234    0.0000 H       1  UNL1        0.0627
     27 H           7.2414   -2.3859    0.0000 H       1  UNL1        0.0691
     28 H          10.3972   -1.5412    0.0000 H       1  UNL1        0.1037
     29 H           5.7924    0.1016    0.0000 H       1  UNL1        0.0654
     30 H          11.5923   -0.8512    0.0000 H       1  UNL1        0.0625
     31 H          10.1893    1.5788    0.0000 H       1  UNL1        0.0625
     32 H           4.9928   -0.7823    0.0000 H       1  UNL1        0.0742
     33 H           4.1958   -0.7853    0.0000 H       1  UNL1        0.0742
     34 H          12.9952   -0.0412    0.0000 H       1  UNL1        0.0654
     35 H          11.5923    2.3888    0.0000 H       1  UNL1        0.0654
     36 H           3.7344   -2.3821    0.0000 H       1  UNL1        0.0605
     37 H           3.4802   -0.2630    0.0000 H       1  UNL1        0.0274
     38 H           2.8578    0.3546    0.0000 H       1  UNL1        0.0274
     39 H           2.2402   -0.2678    0.0000 H       1  UNL1        0.0274
     40 H           1.6879   -1.2330    0.0000 H       1  UNL1        0.0274
     41 H           1.4643   -2.0808    0.0000 H       1  UNL1        0.0274
     42 H           2.3121   -2.3045    0.0000 H       1  UNL1        0.0274
     43 H          13.8804    0.7318    0.0000 H       1  UNL1        0.0660
     44 H          14.7273    0.9588    0.0000 H       1  UNL1        0.0660
     45 H          14.5004    1.8057    0.0000 H       1  UNL1        0.0660
@<TRIPOS>BOND
     1     1     7   ar
     2     1    13   ar
     3     2    12    1
     4     2    17    1
     5     3     8    2
     6     4    20    1
     7     4    25    1
     8     5     7   ar
     9     5     8   ar
    10     5    10   ar
    11     6     8   ar
    12     6     9    1
    13     6    13   ar
    14     7    11   ar
    15     9    15   ar
    16     9    16   ar
    17    10    14   ar
    18    10    26    1
    19    11    12   ar
    20    11    27    1
    21    12    14   ar
    22    13    28    1
    23    14    29    1
    24    15    18   ar
    25    15    30    1
    26    16    19   ar
    27    16    31    1
    28    17    21    1
    29    17    32    1
    30    17    33    1
    31    18    20   ar
    32    18    34    1
    33    19    20   ar
    34    19    35    1
    35    21    22    2
    36    21    36    1
    37    22    23    1
    38    22    24    1
    39    23    40    1
    40    23    41    1
    41    23    42    1
    42    24    37    1
    43    24    38    1
    44    24    39    1
    45    25    43    1
    46    25    44    1
    47    25    45    1
