@<TRIPOS>MOLECULE
IMPHY007675
 44 44 0 0 0
SMALL
GASTEIGER

@<TRIPOS>ATOM
      1 O           2.5369   -2.0000    0.0000 O.2     1  UNL1       -0.5029
      2 O           6.0010   -2.0000    0.0000 O.2     1  UNL1       -0.2836
      3 O           6.0010   -4.0000    0.0000 O.2     1  UNL1       -0.5029
      4 O           2.5369   -4.0000    0.0000 O.2     1  UNL1       -0.2836
      5 C           6.0010    1.0000    0.0000 C.3     1  UNL1       -0.0530
      6 C           5.1350    0.5000    0.0000 C.3     1  UNL1       -0.0528
      7 C           6.0010    2.0000    0.0000 C.3     1  UNL1       -0.0531
      8 C           5.1350   -0.5000    0.0000 C.3     1  UNL1       -0.0488
      9 C           6.8671    2.5000    0.0000 C.3     1  UNL1       -0.0531
     10 C           4.2690   -1.0000    0.0000 C.3     1  UNL1       -0.0203
     11 C           6.8671    3.5000    0.0000 C.3     1  UNL1       -0.0533
     12 C           7.7331    4.0000    0.0000 C.3     1  UNL1       -0.0559
     13 C           4.2690   -2.0000    0.0000 C.2     1  UNL1        0.0481
     14 C           3.4030   -2.5000    0.0000 C.2     1  UNL1        0.1710
     15 C           5.1350   -2.5000    0.0000 C.2     1  UNL1        0.2271
     16 C           7.7331    5.0000    0.0000 C.3     1  UNL1       -0.0653
     17 C           5.1350   -3.5000    0.0000 C.2     1  UNL1        0.1707
     18 C           4.2690   -4.0000    0.0000 C.2     1  UNL1        0.0450
     19 C           3.4030   -3.5000    0.0000 C.2     1  UNL1        0.2269
     20 C           4.2690   -5.0000    0.0000 C.3     1  UNL1       -0.0323
     21 H           6.2131    0.4174    0.0000 H       1  UNL1        0.0265
     22 H           6.6116    1.1077    0.0000 H       1  UNL1        0.0265
     23 H           4.9230    1.0826    0.0000 H       1  UNL1        0.0265
     24 H           4.5244    0.3923    0.0000 H       1  UNL1        0.0265
     25 H           5.7890    2.5826    0.0000 H       1  UNL1        0.0265
     26 H           5.3905    1.8923    0.0000 H       1  UNL1        0.0265
     27 H           5.3471   -1.0826    0.0000 H       1  UNL1        0.0268
     28 H           5.7456   -0.3923    0.0000 H       1  UNL1        0.0268
     29 H           7.0791    1.9174    0.0000 H       1  UNL1        0.0265
     30 H           7.4776    2.6077    0.0000 H       1  UNL1        0.0265
     31 H           4.0569   -0.4174    0.0000 H       1  UNL1        0.0316
     32 H           3.6584   -1.1077    0.0000 H       1  UNL1        0.0316
     33 H           6.6550    4.0826    0.0000 H       1  UNL1        0.0265
     34 H           6.2565    3.3923    0.0000 H       1  UNL1        0.0265
     35 H           7.9451    3.4174    0.0000 H       1  UNL1        0.0263
     36 H           8.3437    4.1077    0.0000 H       1  UNL1        0.0263
     37 H           8.3531    5.0000    0.0000 H       1  UNL1        0.0230
     38 H           7.7331    5.6200    0.0000 H       1  UNL1        0.0230
     39 H           7.1131    5.0000    0.0000 H       1  UNL1        0.0230
     40 H           3.6490   -5.0000    0.0000 H       1  UNL1        0.0280
     41 H           4.2690   -5.6200    0.0000 H       1  UNL1        0.0280
     42 H           4.8890   -5.0000    0.0000 H       1  UNL1        0.0280
     43 H           2.0000   -2.3100    0.0000 H       1  UNL1        0.2923
     44 H           6.0010   -4.6200    0.0000 H       1  UNL1        0.2923
@<TRIPOS>BOND
     1     1    14    1
     2     1    43    1
     3     2    15    2
     4     3    17    1
     5     3    44    1
     6     4    19    2
     7     5     6    1
     8     5     7    1
     9     5    21    1
    10     5    22    1
    11     6     8    1
    12     6    23    1
    13     6    24    1
    14     7     9    1
    15     7    25    1
    16     7    26    1
    17     8    10    1
    18     8    27    1
    19     8    28    1
    20     9    11    1
    21     9    29    1
    22     9    30    1
    23    10    13    1
    24    10    31    1
    25    10    32    1
    26    11    12    1
    27    11    33    1
    28    11    34    1
    29    12    16    1
    30    12    35    1
    31    12    36    1
    32    13    14    2
    33    13    15    1
    34    14    19    1
    35    15    17    1
    36    16    37    1
    37    16    38    1
    38    16    39    1
    39    17    18    2
    40    18    19    1
    41    18    20    1
    42    20    40    1
    43    20    41    1
    44    20    42    1
