@<TRIPOS>MOLECULE
IMPHY011140
 51 53 0 0 0
SMALL
GASTEIGER

@<TRIPOS>ATOM
      1 O           6.2132   -2.6316    0.0000 O.3     1  UNL1       -0.3648
      2 O           6.5493    0.9077    0.0000 O.3     1  UNL1       -0.4603
      3 O           3.5436    1.5433    0.0000 O.3     1  UNL1       -0.4532
      4 O           2.6581   -2.5959    0.0000 O.3     1  UNL1       -0.3874
      5 O           4.1784    3.2023    0.0000 O.2     1  UNL1       -0.2453
      6 O           7.7082   -0.3794    0.0000 O.2     1  UNL1       -0.2505
      7 C           6.0050   -1.6531    0.0000 C.3     1  UNL1        0.0967
      8 C           5.2618   -2.3222    0.0000 C.3     1  UNL1        0.0909
      9 C           6.2129   -0.6749    0.0000 C.3     1  UNL1        0.0164
     10 C           4.2673   -2.4267    0.0000 C.3     1  UNL1        0.0061
     11 C           5.8061    0.2386    0.0000 C.3     1  UNL1        0.1164
     12 C           6.7481   -0.9839    0.0000 C.3     1  UNL1       -0.0332
     13 C           4.9401    0.7386    0.0000 C.3     1  UNL1        0.0681
     14 C           3.4013   -1.9267    0.0000 C.3     1  UNL1        0.0786
     15 C           3.9456    0.6341    0.0000 C.3     1  UNL1        0.1322
     16 C           2.9945   -1.0132    0.0000 C.2     1  UNL1       -0.0449
     17 C           5.1443    1.7115    0.0000 C.2     1  UNL1        0.0400
     18 C           3.2024   -0.0350    0.0000 C.2     1  UNL1       -0.0419
     19 C           4.2829    2.2078    0.0000 C.2     1  UNL1        0.3357
     20 C           2.0000   -1.1177    0.0000 C.3     1  UNL1       -0.0413
     21 C           7.5003    0.5987    0.0000 C.2     1  UNL1        0.3099
     22 C           6.0571    2.1198    0.0000 C.2     1  UNL1       -0.0882
     23 C           8.2435    1.2679    0.0000 C.3     1  UNL1        0.0508
     24 C           9.1945    0.9588    0.0000 C.3     1  UNL1       -0.0525
     25 C           8.0356    2.2460    0.0000 C.3     1  UNL1       -0.0525
     26 H           5.1729   -3.1675    0.0000 H       1  UNL1        0.0626
     27 H           6.7498   -0.9849    0.0000 H       1  UNL1        0.0330
     28 H           6.6736   -0.2601    0.0000 H       1  UNL1        0.0330
     29 H           3.8065   -2.8416    0.0000 H       1  UNL1        0.0319
     30 H           4.3962   -1.8203    0.0000 H       1  UNL1        0.0319
     31 H           5.7413    0.8552    0.0000 H       1  UNL1        0.0742
     32 H           7.1630   -1.4447    0.0000 H       1  UNL1        0.0258
     33 H           7.2088   -0.5691    0.0000 H       1  UNL1        0.0258
     34 H           6.3332   -0.5232    0.0000 H       1  UNL1        0.0258
     35 H           5.7162    1.0854    0.0000 H       1  UNL1        0.0427
     36 H           2.7948   -1.7978    0.0000 H       1  UNL1        0.0641
     37 H           3.1144    0.8119    0.0000 H       1  UNL1        0.0787
     38 H           2.6655    0.2750    0.0000 H       1  UNL1        0.0609
     39 H           2.7870   -3.2023    0.0000 H       1  UNL1        0.2102
     40 H           1.9352   -0.5011    0.0000 H       1  UNL1        0.0275
     41 H           1.3834   -1.1825    0.0000 H       1  UNL1        0.0275
     42 H           2.0648   -1.7343    0.0000 H       1  UNL1        0.0275
     43 H           6.5593    1.7563    0.0000 H       1  UNL1        0.0540
     44 H           6.1208    2.7365    0.0000 H       1  UNL1        0.0540
     45 H           7.6538    1.4594    0.0000 H       1  UNL1        0.0408
     46 H           8.6420    2.3749    0.0000 H       1  UNL1        0.0237
     47 H           7.9067    2.8525    0.0000 H       1  UNL1        0.0237
     48 H           9.0029    0.3692    0.0000 H       1  UNL1        0.0237
     49 H           9.7842    0.7673    0.0000 H       1  UNL1        0.0237
     50 H           7.4291    2.1171    0.0000 H       1  UNL1        0.0237
     51 H           9.3861    1.5485    0.0000 H       1  UNL1        0.0237
@<TRIPOS>BOND
     1     1     7    1
     2     1     8    1
     3    11     2    1
     4     2    21    1
     5     3    15    1
     6     3    19    1
     7    14     4    1
     8     4    39    1
     9     5    19    2
    10     6    21    2
    11     7     8    1
    12     7     9    1
    13     7    12    1
    14     8    10    1
    15     8    26    1
    16     9    11    1
    17     9    27    1
    18     9    28    1
    19    10    14    1
    20    10    29    1
    21    10    30    1
    22    11    13    1
    23    11    31    1
    24    12    32    1
    25    12    33    1
    26    12    34    1
    27    13    15    1
    28    13    17    1
    29    13    35    1
    30    14    16    1
    31    14    36    1
    32    15    18    1
    33    15    37    1
    34    16    18    2
    35    16    20    1
    36    17    19    1
    37    17    22    2
    38    18    38    1
    39    20    40    1
    40    20    41    1
    41    20    42    1
    42    21    23    1
    43    22    43    1
    44    22    44    1
    45    23    24    1
    46    23    25    1
    47    23    45    1
    48    24    48    1
    49    24    49    1
    50    24    51    1
    51    25    46    1
    52    25    47    1
    53    25    50    1
