@<TRIPOS>MOLECULE
IMPHY007698
 100 107 0 0 0
SMALL
GASTEIGER

@<TRIPOS>ATOM
      1 O          13.1325    4.2251    0.0000 O.3     1  UNL1       -0.4810
      2 O           2.8832   -0.7255    0.0000 O.3     1  UNL1       -0.4810
      3 O           9.2238    2.1559    0.0000 O.3     1  UNL1       -0.5061
      4 O           6.1678    4.2127    0.0000 O.3     1  UNL1       -0.5061
      5 N           9.6573    3.3085    0.0000 N.ar    1  UNL1       -0.3530
      6 N           6.4251   -0.1160    0.0000 N.ar    1  UNL1       -0.3535
      7 C          13.4620    3.2370    0.0000 C.3     1  UNL1        0.1266
      8 C           2.9939   -1.7613    0.0000 C.3     1  UNL1        0.1266
      9 C          10.4631    3.8907    0.0000 C.ar    1  UNL1        0.0583
     10 C          11.4412    3.6828    0.0000 C.ar    1  UNL1        0.0407
     11 C          10.1541    4.8418    0.0000 C.ar    1  UNL1        0.0085
     12 C           5.4504    0.0790    0.0000 C.ar    1  UNL1        0.0582
     13 C           8.8536    3.8935    0.0000 C.ar    1  UNL1        0.0589
     14 C           5.3365    1.0724    0.0000 C.ar    1  UNL1        0.0085
     15 C           4.6469   -0.5164    0.0000 C.ar    1  UNL1        0.0407
     16 C           9.1600    4.8392    0.0000 C.ar    1  UNL1        0.0083
     17 C          12.1104    4.4259    0.0000 C.ar    1  UNL1        0.1337
     18 C           6.2418    1.4830    0.0000 C.ar    1  UNL1        0.0082
     19 C           3.7296   -0.1183    0.0000 C.ar    1  UNL1        0.1337
     20 C          14.2077    2.5707    0.0000 C.3     1  UNL1       -0.0060
     21 C           2.5923   -2.6771    0.0000 C.3     1  UNL1       -0.0060
     22 C           7.8444    3.6617    0.0000 C.ar    1  UNL1        0.0509
     23 C           6.9133    0.7500    0.0000 C.ar    1  UNL1        0.0510
     24 C          12.7650    2.4629    0.0000 C.2     1  UNL1       -0.0406
     25 C           7.5473    2.7069    0.0000 C.ar    1  UNL1        0.0297
     26 C          11.8014    5.3770    0.0000 C.ar    1  UNL1       -0.0075
     27 C           3.9495   -2.1760    0.0000 C.2     1  UNL1       -0.0406
     28 C           3.6157    0.8752    0.0000 C.ar    1  UNL1       -0.0075
     29 C          11.7478    2.6873    0.0000 C.2     1  UNL1       -0.0493
     30 C          10.8232    5.5849    0.0000 C.ar    1  UNL1       -0.0456
     31 C           4.7815   -1.5493    0.0000 C.2     1  UNL1       -0.0493
     32 C           4.4191    1.4706    0.0000 C.ar    1  UNL1       -0.0456
     33 C           6.5381    2.4752    0.0000 C.ar    1  UNL1       -0.0406
     34 C          14.4118    3.5496    0.0000 C.3     1  UNL1       -0.0212
     35 C           2.0000   -1.8714    0.0000 C.3     1  UNL1       -0.0212
     36 C          14.0035    1.5918    0.0000 C.3     1  UNL1       -0.0306
     37 C           7.9276    0.9583    0.0000 C.ar    1  UNL1        0.0044
     38 C           3.1846   -3.4828    0.0000 C.3     1  UNL1       -0.0306
     39 C           8.2467    1.9434    0.0000 C.ar    1  UNL1        0.1267
     40 C           8.4784    5.6187    0.0000 C.ar    1  UNL1       -0.0485
     41 C           7.1450    4.4253    0.0000 C.ar    1  UNL1        0.1267
     42 C           7.4641    5.4103    0.0000 C.ar    1  UNL1       -0.0189
     43 C          12.4705    6.1201    0.0000 C.3     1  UNL1       -0.0362
     44 C           2.6983    1.2732    0.0000 C.3     1  UNL1       -0.0362
     45 C          14.7493    0.9255    0.0000 C.2     1  UNL1       -0.0851
     46 C           2.7830   -4.3986    0.0000 C.2     1  UNL1       -0.0851
     47 C          14.5451   -0.0534    0.0000 C.2     1  UNL1       -0.0796
     48 C           3.3753   -5.2043    0.0000 C.2     1  UNL1       -0.0796
     49 C          15.2908   -0.7197    0.0000 C.3     1  UNL1       -0.0440
     50 C          13.5953   -0.3661    0.0000 C.3     1  UNL1       -0.0440
     51 C           2.9736   -6.1201    0.0000 C.3     1  UNL1       -0.0440
     52 C           4.3692   -5.0942    0.0000 C.3     1  UNL1       -0.0440
     53 H          14.7834    2.3407    0.0000 H       1  UNL1        0.0310
     54 H          14.5342    3.0978    0.0000 H       1  UNL1        0.0310
     55 H           2.0764   -2.3333    0.0000 H       1  UNL1        0.0310
     56 H           2.1641   -3.1255    0.0000 H       1  UNL1        0.0310
     57 H           9.6563    2.6885    0.0000 H       1  UNL1        0.1659
     58 H          12.9543    1.8725    0.0000 H       1  UNL1        0.0611
     59 H           4.0225   -2.7916    0.0000 H       1  UNL1        0.0611
     60 H           6.6836   -0.6795    0.0000 H       1  UNL1        0.1659
     61 H          11.3276    2.2314    0.0000 H       1  UNL1        0.0623
     62 H          10.6316    6.1746    0.0000 H       1  UNL1        0.0628
     63 H           5.3531   -1.7896    0.0000 H       1  UNL1        0.0623
     64 H           4.3485    2.0865    0.0000 H       1  UNL1        0.0628
     65 H           6.1140    2.9275    0.0000 H       1  UNL1        0.0631
     66 H          14.6057    2.9607    0.0000 H       1  UNL1        0.0271
     67 H          15.0007    3.7435    0.0000 H       1  UNL1        0.0271
     68 H          14.2180    4.1386    0.0000 H       1  UNL1        0.0271
     69 H           1.9318   -1.2551    0.0000 H       1  UNL1        0.0271
     70 H           1.3838   -1.9396    0.0000 H       1  UNL1        0.0271
     71 H           2.0682   -2.4876    0.0000 H       1  UNL1        0.0271
     72 H          13.4278    1.8218    0.0000 H       1  UNL1        0.0309
     73 H          13.6770    1.0647    0.0000 H       1  UNL1        0.0309
     74 H           3.7005   -3.8266    0.0000 H       1  UNL1        0.0309
     75 H           3.6128   -3.0344    0.0000 H       1  UNL1        0.0309
     76 H           8.3410    0.4963    0.0000 H       1  UNL1        0.0675
     77 H           8.6763    6.2062    0.0000 H       1  UNL1        0.0625
     78 H           7.0506    5.8723    0.0000 H       1  UNL1        0.0654
     79 H          12.9312    5.7053    0.0000 H       1  UNL1        0.0279
     80 H          12.8853    6.5809    0.0000 H       1  UNL1        0.0279
     81 H          12.0097    6.5350    0.0000 H       1  UNL1        0.0279
     82 H           2.9452    1.8420    0.0000 H       1  UNL1        0.0279
     83 H           2.1296    1.5201    0.0000 H       1  UNL1        0.0279
     84 H           2.4515    0.7045    0.0000 H       1  UNL1        0.0279
     85 H          15.3382    1.1194    0.0000 H       1  UNL1        0.0571
     86 H           2.1667   -4.4669    0.0000 H       1  UNL1        0.0571
     87 H           9.6409    1.6971    0.0000 H       1  UNL1        0.2922
     88 H           5.7508    4.6715    0.0000 H       1  UNL1        0.2922
     89 H          14.8778   -1.1820    0.0000 H       1  UNL1        0.0274
     90 H          15.7532   -1.1328    0.0000 H       1  UNL1        0.0274
     91 H          15.7039   -0.2574    0.0000 H       1  UNL1        0.0274
     92 H          13.4014    0.2228    0.0000 H       1  UNL1        0.0274
     93 H          13.0064   -0.5600    0.0000 H       1  UNL1        0.0274
     94 H          13.7891   -0.9550    0.0000 H       1  UNL1        0.0274
     95 H           4.4374   -5.7105    0.0000 H       1  UNL1        0.0274
     96 H           4.9854   -5.0260    0.0000 H       1  UNL1        0.0274
     97 H           4.3009   -4.4780    0.0000 H       1  UNL1        0.0274
     98 H           2.4058   -5.8711    0.0000 H       1  UNL1        0.0274
     99 H           2.7246   -6.6879    0.0000 H       1  UNL1        0.0274
    100 H           3.5414   -6.3691    0.0000 H       1  UNL1        0.0274
@<TRIPOS>BOND
     1     1     7    1
     2     1    17    1
     3     2     8    1
     4     2    19    1
     5     3    39    1
     6     3    87    1
     7     4    41    1
     8     4    88    1
     9     5     9   ar
    10     5    13   ar
    11     5    57    1
    12     6    12   ar
    13     6    23   ar
    14     6    60    1
    15     7    20    1
    16     7    24    1
    17     7    34    1
    18     8    21    1
    19     8    27    1
    20     8    35    1
    21     9    10   ar
    22     9    11   ar
    23    10    17   ar
    24    10    29    1
    25    11    16   ar
    26    11    30   ar
    27    12    14   ar
    28    12    15   ar
    29    13    16   ar
    30    13    22   ar
    31    14    18   ar
    32    14    32   ar
    33    15    19   ar
    34    15    31    1
    35    16    40   ar
    36    17    26   ar
    37    18    23   ar
    38    18    33   ar
    39    19    28   ar
    40    20    36    1
    41    20    53    1
    42    20    54    1
    43    21    38    1
    44    21    55    1
    45    21    56    1
    46    22    25    1
    47    22    41   ar
    48    23    37   ar
    49    24    29    2
    50    24    58    1
    51    25    33   ar
    52    25    39   ar
    53    26    30   ar
    54    26    43    1
    55    27    31    2
    56    27    59    1
    57    28    32   ar
    58    28    44    1
    59    29    61    1
    60    30    62    1
    61    31    63    1
    62    32    64    1
    63    33    65    1
    64    34    66    1
    65    34    67    1
    66    34    68    1
    67    35    69    1
    68    35    70    1
    69    35    71    1
    70    36    45    1
    71    36    72    1
    72    36    73    1
    73    37    39   ar
    74    37    76    1
    75    38    46    1
    76    38    74    1
    77    38    75    1
    78    40    42   ar
    79    40    77    1
    80    41    42   ar
    81    42    78    1
    82    43    79    1
    83    43    80    1
    84    43    81    1
    85    44    82    1
    86    44    83    1
    87    44    84    1
    88    45    47    2
    89    45    85    1
    90    46    48    2
    91    46    86    1
    92    47    49    1
    93    47    50    1
    94    48    51    1
    95    48    52    1
    96    49    89    1
    97    49    90    1
    98    49    91    1
    99    50    92    1
   100    50    93    1
   101    50    94    1
   102    51    98    1
   103    51    99    1
   104    51   100    1
   105    52    95    1
   106    52    96    1
   107    52    97    1
