@<TRIPOS>MOLECULE
IMPHY016411
 28 28 0 0 0
SMALL
GASTEIGER

@<TRIPOS>ATOM
      1 O           4.2690    2.5000    0.0000 O.3     1  UNL1       -0.4915
      2 O           5.1350   -2.0000    0.0000 O.2     1  UNL1       -0.2971
      3 O           2.5369    1.5000    0.0000 O.3     1  UNL1       -0.5033
      4 C           6.0010   -0.5000    0.0000 C.3     1  UNL1        0.0311
      5 C           5.1350    0.0000    0.0000 C.ar    1  UNL1       -0.0366
      6 C           6.0010   -1.5000    0.0000 C.2     1  UNL1        0.1374
      7 C           6.8671   -2.0000    0.0000 C.3     1  UNL1        0.0033
      8 C           5.1350    1.0000    0.0000 C.ar    1  UNL1       -0.0127
      9 C           4.2690   -0.5000    0.0000 C.ar    1  UNL1       -0.0545
     10 C           4.2690    1.5000    0.0000 C.ar    1  UNL1        0.1615
     11 C           3.4030    1.0000    0.0000 C.ar    1  UNL1        0.1585
     12 C           3.4030    0.0000    0.0000 C.ar    1  UNL1       -0.0163
     13 C           6.8671   -3.0000    0.0000 C.3     1  UNL1       -0.0586
     14 C           5.1350    3.0000    0.0000 C.3     1  UNL1        0.0790
     15 H           6.6116   -0.6077    0.0000 H       1  UNL1        0.0390
     16 H           6.2131    0.0826    0.0000 H       1  UNL1        0.0390
     17 H           7.4776   -2.1077    0.0000 H       1  UNL1        0.0339
     18 H           7.0791   -1.4174    0.0000 H       1  UNL1        0.0339
     19 H           5.6720    1.3100    0.0000 H       1  UNL1        0.0658
     20 H           4.2690   -1.1200    0.0000 H       1  UNL1        0.0622
     21 H           2.8660   -0.3100    0.0000 H       1  UNL1        0.0655
     22 H           6.2471   -3.0000    0.0000 H       1  UNL1        0.0234
     23 H           6.8671   -3.6200    0.0000 H       1  UNL1        0.0234
     24 H           7.4871   -3.0000    0.0000 H       1  UNL1        0.0234
     25 H           2.0000    1.1900    0.0000 H       1  UNL1        0.2923
     26 H           5.4450    2.4631    0.0000 H       1  UNL1        0.0660
     27 H           5.6720    3.3100    0.0000 H       1  UNL1        0.0660
     28 H           4.8250    3.5369    0.0000 H       1  UNL1        0.0660
@<TRIPOS>BOND
     1     1    10    1
     2     1    14    1
     3     2     6    2
     4     3    11    1
     5     3    25    1
     6     4     5    1
     7     4     6    1
     8     4    15    1
     9     4    16    1
    10     5     8   ar
    11     5     9   ar
    12     6     7    1
    13     7    13    1
    14     7    17    1
    15     7    18    1
    16     8    10   ar
    17     8    19    1
    18     9    12   ar
    19     9    20    1
    20    10    11   ar
    21    11    12   ar
    22    12    21    1
    23    13    22    1
    24    13    23    1
    25    13    24    1
    26    14    26    1
    27    14    27    1
    28    14    28    1
