@<TRIPOS>MOLECULE
IMPHY013756
 11 11 0 0 0
SMALL
GASTEIGER

@<TRIPOS>ATOM
      1 O           2.8660   -1.5000    0.0000 O.2     1  UNL1       -0.4708
      2 O           2.8660    1.5000    0.0000 O.2     1  UNL1       -0.2877
      3 C           2.8660    0.5000    0.0000 C.ar    1  UNL1        0.1848
      4 C           2.0000   -0.0000    0.0000 C.ar    1  UNL1        0.0200
      5 C           3.7320    0.0000    0.0000 C.ar    1  UNL1        0.0200
      6 C           2.0000   -1.0000    0.0000 C.ar    1  UNL1        0.0952
      7 C           3.7320   -1.0000    0.0000 C.ar    1  UNL1        0.0952
      8 H           1.4631    0.3100    0.0000 H       1  UNL1        0.0686
      9 H           4.2690    0.3100    0.0000 H       1  UNL1        0.0686
     10 H           1.4631   -1.3100    0.0000 H       1  UNL1        0.1030
     11 H           4.2690   -1.3100    0.0000 H       1  UNL1        0.1030
@<TRIPOS>BOND
     1     1     6   ar
     2     1     7   ar
     3     2     3    2
     4     3     4   ar
     5     3     5   ar
     6     4     6   ar
     7     4     8    1
     8     5     7   ar
     9     5     9    1
    10     6    10    1
    11     7    11    1
