@<TRIPOS>MOLECULE
IMPHY012421
 35 36 0 0 0
SMALL
GASTEIGER

@<TRIPOS>ATOM
      1 O           4.2690    0.7500    0.0000 O.3     1  UNL1       -0.4520
      2 O           4.2690   -3.2500    0.0000 O.3     1  UNL1       -0.4950
      3 O           2.5369   -0.2500    0.0000 O.3     1  UNL1       -0.5032
      4 O           7.7331    0.7500    0.0000 O.3     1  UNL1       -0.5066
      5 C           4.2690   -0.2500    0.0000 C.ar    1  UNL1        0.1727
      6 C           5.1350   -0.7500    0.0000 C.ar    1  UNL1       -0.0011
      7 C           5.1350    1.2500    0.0000 C.ar    1  UNL1        0.1323
      8 C           3.4030   -0.7500    0.0000 C.ar    1  UNL1        0.1628
      9 C           5.1350   -1.7500    0.0000 C.ar    1  UNL1       -0.0133
     10 C           4.2690   -2.2500    0.0000 C.ar    1  UNL1        0.1240
     11 C           6.0010    2.7500    0.0000 C.ar    1  UNL1       -0.0435
     12 C           3.4030   -1.7500    0.0000 C.ar    1  UNL1        0.0252
     13 C           5.1350    2.2500    0.0000 C.ar    1  UNL1       -0.0162
     14 C           6.0010   -0.2500    0.0000 C.3     1  UNL1       -0.0360
     15 C           6.0010    0.7500    0.0000 C.ar    1  UNL1        0.0222
     16 C           6.8671    2.2500    0.0000 C.ar    1  UNL1       -0.0170
     17 C           6.8671    1.2500    0.0000 C.ar    1  UNL1        0.1206
     18 C           6.0010    3.7500    0.0000 C.3     1  UNL1       -0.0395
     19 C           3.4030   -3.7500    0.0000 C.3     1  UNL1        0.0788
     20 H           5.6720   -2.0600    0.0000 H       1  UNL1        0.0658
     21 H           2.8660   -2.0600    0.0000 H       1  UNL1        0.0692
     22 H           4.5981    2.5600    0.0000 H       1  UNL1        0.0657
     23 H           6.3110   -0.7869    0.0000 H       1  UNL1        0.0279
     24 H           6.5380    0.0600    0.0000 H       1  UNL1        0.0279
     25 H           5.6910    0.2869    0.0000 H       1  UNL1        0.0279
     26 H           6.0010    0.1300    0.0000 H       1  UNL1        0.0691
     27 H           7.4040    2.5600    0.0000 H       1  UNL1        0.0657
     28 H           6.6210    3.7500    0.0000 H       1  UNL1        0.0278
     29 H           6.0010    4.3700    0.0000 H       1  UNL1        0.0278
     30 H           5.3810    3.7500    0.0000 H       1  UNL1        0.0278
     31 H           2.0000   -0.5600    0.0000 H       1  UNL1        0.2923
     32 H           3.0930   -3.2131    0.0000 H       1  UNL1        0.0660
     33 H           2.8660   -4.0600    0.0000 H       1  UNL1        0.0660
     34 H           3.7130   -4.2869    0.0000 H       1  UNL1        0.0660
     35 H           8.2700    1.0600    0.0000 H       1  UNL1        0.2921
@<TRIPOS>BOND
     1     1     5    1
     2     1     7    1
     3     2    10    1
     4     2    19    1
     5     3     8    1
     6     3    31    1
     7     4    17    1
     8     4    35    1
     9     5     6   ar
    10     5     8   ar
    11     6     9   ar
    12     6    14    1
    13     7    13   ar
    14     7    15   ar
    15     8    12   ar
    16     9    10   ar
    17     9    20    1
    18    10    12   ar
    19    11    13   ar
    20    11    16   ar
    21    11    18    1
    22    12    21    1
    23    13    22    1
    24    14    23    1
    25    14    24    1
    26    14    25    1
    27    15    17   ar
    28    15    26    1
    29    16    17   ar
    30    16    27    1
    31    18    28    1
    32    18    29    1
    33    18    30    1
    34    19    32    1
    35    19    33    1
    36    19    34    1
