@<TRIPOS>MOLECULE
IMPHY002574
 54 56 0 0 0
SMALL
GASTEIGER

@<TRIPOS>ATOM
      1 O           9.7619    1.5083    0.0000 O.3     1  UNL1       -0.3950
      2 O           4.6318    2.3603    0.0000 O.3     1  UNL1       -0.3947
      3 N           6.7619   -1.9558    0.0000 N.3     1  UNL1       -0.2968
      4 N           4.6783   -1.8945    0.0000 N.ar    1  UNL1       -0.3564
      5 C           7.7619   -0.2237    0.0000 C.3     1  UNL1       -0.0332
      6 C           8.2619   -1.0898    0.0000 C.3     1  UNL1       -0.0255
      7 C           6.2619   -1.0898    0.0000 C.3     1  UNL1        0.0509
      8 C           6.7619   -0.2237    0.0000 C.3     1  UNL1       -0.0286
      9 C           7.7619   -1.9558    0.0000 C.3     1  UNL1        0.0023
     10 C           8.2619    0.6423    0.0000 C.3     1  UNL1       -0.0265
     11 C           9.2619   -1.0898    0.0000 C.3     1  UNL1       -0.0516
     12 C           5.2619   -1.0898    0.0000 C.ar    1  UNL1        0.0376
     13 C           6.2619   -2.8218    0.0000 C.3     1  UNL1       -0.0121
     14 C           4.6783   -0.2850    0.0000 C.ar    1  UNL1       -0.0154
     15 C           9.2619    0.6423    0.0000 C.3     1  UNL1        0.0445
     16 C           9.7619   -1.9558    0.0000 C.3     1  UNL1       -0.0650
     17 C           3.7320   -0.5897    0.0000 C.ar    1  UNL1        0.0032
     18 C           3.7320   -1.5898    0.0000 C.ar    1  UNL1        0.0470
     19 C           4.9889    0.6655    0.0000 C.3     1  UNL1       -0.0021
     20 C           2.8660   -0.0897    0.0000 C.ar    1  UNL1       -0.0523
     21 C           2.8660   -2.0898    0.0000 C.ar    1  UNL1       -0.0378
     22 C           4.3211    1.4098    0.0000 C.3     1  UNL1        0.0482
     23 C           2.0000   -0.5897    0.0000 C.ar    1  UNL1       -0.0611
     24 C           2.0000   -1.5898    0.0000 C.ar    1  UNL1       -0.0598
     25 H           7.4519    0.3132    0.0000 H       1  UNL1        0.0305
     26 H           8.5719   -0.5528    0.0000 H       1  UNL1        0.0316
     27 H           5.8369   -0.3536    0.0000 H       1  UNL1        0.0527
     28 H           6.8695    0.3869    0.0000 H       1  UNL1        0.0287
     29 H           6.1793   -0.0117    0.0000 H       1  UNL1        0.0287
     30 H           7.6542   -2.5664    0.0000 H       1  UNL1        0.0429
     31 H           8.3445   -2.1678    0.0000 H       1  UNL1        0.0429
     32 H           8.3695    1.2529    0.0000 H       1  UNL1        0.0290
     33 H           7.6793    0.8544    0.0000 H       1  UNL1        0.0290
     34 H           9.8445   -0.8777    0.0000 H       1  UNL1        0.0266
     35 H           9.1542   -0.4792    0.0000 H       1  UNL1        0.0266
     36 H           5.7249   -2.5118    0.0000 H       1  UNL1        0.0391
     37 H           5.9519   -3.3587    0.0000 H       1  UNL1        0.0391
     38 H           6.7988   -3.1318    0.0000 H       1  UNL1        0.0391
     39 H           9.1542    0.0317    0.0000 H       1  UNL1        0.0557
     40 H           9.8445    0.4303    0.0000 H       1  UNL1        0.0557
     41 H           4.8709   -2.4838    0.0000 H       1  UNL1        0.1656
     42 H           9.2249   -2.2658    0.0000 H       1  UNL1        0.0230
     43 H          10.0719   -2.4927    0.0000 H       1  UNL1        0.0230
     44 H          10.2988   -1.6458    0.0000 H       1  UNL1        0.0230
     45 H           5.5359    0.3735    0.0000 H       1  UNL1        0.0336
     46 H           5.3715    1.1534    0.0000 H       1  UNL1        0.0336
     47 H           2.8660    0.5303    0.0000 H       1  UNL1        0.0624
     48 H           2.8660   -2.7098    0.0000 H       1  UNL1        0.0638
     49 H           3.7742    1.7018    0.0000 H       1  UNL1        0.0560
     50 H           3.9385    0.9219    0.0000 H       1  UNL1        0.0560
     51 H          10.3819    1.5083    0.0000 H       1  UNL1        0.2094
     52 H           1.4631   -0.2797    0.0000 H       1  UNL1        0.0618
     53 H           1.4631   -1.8998    0.0000 H       1  UNL1        0.0618
     54 H           4.2177    2.8218    0.0000 H       1  UNL1        0.2094
@<TRIPOS>BOND
     1     1    15    1
     2     1    51    1
     3     2    22    1
     4     2    54    1
     5     3     7    1
     6     3     9    1
     7     3    13    1
     8     4    12   ar
     9     4    18   ar
    10     4    41    1
    11     5     6    1
    12     5     8    1
    13     5    10    1
    14     5    25    1
    15     6     9    1
    16     6    11    1
    17     6    26    1
    18     7     8    1
    19     7    12    1
    20     7    27    1
    21     8    28    1
    22     8    29    1
    23     9    30    1
    24     9    31    1
    25    10    15    1
    26    10    32    1
    27    10    33    1
    28    11    16    1
    29    11    34    1
    30    11    35    1
    31    12    14   ar
    32    13    36    1
    33    13    37    1
    34    13    38    1
    35    14    17   ar
    36    14    19    1
    37    15    39    1
    38    15    40    1
    39    16    42    1
    40    16    43    1
    41    16    44    1
    42    17    18   ar
    43    17    20   ar
    44    18    21   ar
    45    19    22    1
    46    19    45    1
    47    19    46    1
    48    20    23   ar
    49    20    47    1
    50    21    24   ar
    51    21    48    1
    52    22    49    1
    53    22    50    1
    54    23    24   ar
    55    23    52    1
    56    24    53    1
