@<TRIPOS>MOLECULE
IMPHY017779
 35 36 0 0 0
SMALL
GASTEIGER

@<TRIPOS>ATOM
      1 O           6.3306    1.0000    0.0000 O.3     1  UNL1       -0.3612
      2 O           4.5981   -1.0000    0.0000 O.3     1  UNL1       -0.4585
      3 O           6.3301   -1.0000    0.0000 O.2     1  UNL1       -0.2512
      4 C           5.4641    1.5000    0.0000 C.3     1  UNL1        0.0969
      5 C           5.4641    0.5000    0.0000 C.3     1  UNL1        0.1251
      6 C           4.5981   -0.0000    0.0000 C.3     1  UNL1        0.1348
      7 C           3.7320    0.5000    0.0000 C.3     1  UNL1        0.0012
      8 C           4.5981    2.0000    0.0000 C.3     1  UNL1       -0.0210
      9 C           3.7320    1.5000    0.0000 C.3     1  UNL1       -0.0438
     10 C           5.4641    2.5000    0.0000 C.3     1  UNL1       -0.0332
     11 C           2.8660    0.0000    0.0000 C.3     1  UNL1       -0.0404
     12 C           2.0000    0.5000    0.0000 C.3     1  UNL1       -0.0623
     13 C           2.8660   -1.0000    0.0000 C.3     1  UNL1       -0.0623
     14 C           5.4641   -1.5000    0.0000 C.2     1  UNL1        0.3043
     15 C           5.4641   -2.5000    0.0000 C.3     1  UNL1        0.0332
     16 H           5.7740   -0.0370    0.0000 H       1  UNL1        0.0662
     17 H           5.1350   -0.3100    0.0000 H       1  UNL1        0.0764
     18 H           4.2690    0.8100    0.0000 H       1  UNL1        0.0340
     19 H           4.9966    2.4750    0.0000 H       1  UNL1        0.0294
     20 H           4.1996    2.4750    0.0000 H       1  UNL1        0.0294
     21 H           3.5200    2.0826    0.0000 H       1  UNL1        0.0270
     22 H           3.1215    1.3923    0.0000 H       1  UNL1        0.0270
     23 H           6.0841    2.5000    0.0000 H       1  UNL1        0.0258
     24 H           5.4641    3.1200    0.0000 H       1  UNL1        0.0258
     25 H           4.8441    2.5000    0.0000 H       1  UNL1        0.0258
     26 H           2.8660    0.6200    0.0000 H       1  UNL1        0.0299
     27 H           2.3100    1.0369    0.0000 H       1  UNL1        0.0232
     28 H           1.4631    0.8100    0.0000 H       1  UNL1        0.0232
     29 H           1.6900   -0.0369    0.0000 H       1  UNL1        0.0232
     30 H           2.2460   -1.0000    0.0000 H       1  UNL1        0.0232
     31 H           2.8660   -1.6200    0.0000 H       1  UNL1        0.0232
     32 H           3.4860   -1.0000    0.0000 H       1  UNL1        0.0232
     33 H           4.8441   -2.5000    0.0000 H       1  UNL1        0.0342
     34 H           5.4641   -3.1200    0.0000 H       1  UNL1        0.0342
     35 H           6.0841   -2.5000    0.0000 H       1  UNL1        0.0342
@<TRIPOS>BOND
     1     1     4    1
     2     1     5    1
     3     2     6    1
     4     2    14    1
     5     3    14    2
     6     4     5    1
     7     4     8    1
     8     4    10    1
     9     5     6    1
    10     5    16    1
    11     6     7    1
    12     6    17    1
    13     7     9    1
    14     7    11    1
    15     7    18    1
    16     8     9    1
    17     8    19    1
    18     8    20    1
    19     9    21    1
    20     9    22    1
    21    10    23    1
    22    10    24    1
    23    10    25    1
    24    11    12    1
    25    11    13    1
    26    11    26    1
    27    12    27    1
    28    12    28    1
    29    12    29    1
    30    13    30    1
    31    13    31    1
    32    13    32    1
    33    14    15    1
    34    15    33    1
    35    15    34    1
    36    15    35    1
