@<TRIPOS>MOLECULE
IMPHY001722
 61 67 0 0 0
SMALL
GASTEIGER

@<TRIPOS>ATOM
      1 O           6.2942   -1.4982    0.0000 O.3     1  UNL1       -0.4831
      2 O           8.1282    1.5639    0.0000 O.2     1  UNL1       -0.4541
      3 O           4.5961    1.5848    0.0000 O.2     1  UNL1       -0.4546
      4 O           9.9142   -1.4812    0.0000 O.3     1  UNL1       -0.4946
      5 O           6.4310    4.5629    0.0000 O.2     1  UNL1       -0.2874
      6 C           6.2774   -2.5830    0.0000 C.3     1  UNL1        0.1255
      7 C           7.2129   -3.1328    0.0000 C.3     1  UNL1       -0.0073
      8 C           8.1525   -2.5903    0.0000 C.3     1  UNL1       -0.0170
      9 C           8.1441   -1.5053    0.0000 C.ar    1  UNL1        0.0368
     10 C           7.2461   -0.9776    0.0000 C.ar    1  UNL1        0.1392
     11 C           7.2622    0.0639    0.0000 C.ar    1  UNL1        0.0674
     12 C           6.3961    0.5639    0.0000 C.ar    1  UNL1        0.0069
     13 C           8.1282    0.5639    0.0000 C.ar    1  UNL1        0.1432
     14 C           6.3961    1.5639    0.0000 C.ar    1  UNL1        0.0680
     15 C           9.0462   -0.9845    0.0000 C.ar    1  UNL1        0.1303
     16 C           5.4057   -3.0730    0.0000 C.ar    1  UNL1       -0.0074
     17 C           7.2622    2.0639    0.0000 C.ar    1  UNL1        0.1462
     18 C           9.0382    0.0571    0.0000 C.ar    1  UNL1        0.0235
     19 C           5.5022    2.0986    0.0000 C.ar    1  UNL1        0.1433
     20 C           5.5022    0.0293    0.0000 C.ar    1  UNL1       -0.0100
     21 C           7.2634    3.0556    0.0000 C.ar    1  UNL1        0.0392
     22 C           4.5961    0.5431    0.0000 C.ar    1  UNL1        0.1362
     23 C           4.5455   -2.5630    0.0000 C.ar    1  UNL1       -0.0551
     24 C           5.3941   -4.0729    0.0000 C.ar    1  UNL1       -0.0551
     25 C           5.5400    3.0896    0.0000 C.ar    1  UNL1        0.0285
     26 C           6.4114    3.5631    0.0000 C.ar    1  UNL1        0.1889
     27 C           8.1331    3.5492    0.0000 C.3     1  UNL1       -0.0325
     28 C           3.7320    0.0398    0.0000 C.ar    1  UNL1        0.0173
     29 C           3.6738   -3.0530    0.0000 C.ar    1  UNL1       -0.0614
     30 C           4.5224   -4.5629    0.0000 C.ar    1  UNL1       -0.0614
     31 C           3.6622   -4.0529    0.0000 C.ar    1  UNL1       -0.0617
     32 C          10.7783   -0.9778    0.0000 C.3     1  UNL1        0.0788
     33 C           2.8641    0.5365    0.0000 C.ar    1  UNL1       -0.0511
     34 C           3.7359   -0.9602    0.0000 C.ar    1  UNL1       -0.0511
     35 C           2.0000    0.0331    0.0000 C.ar    1  UNL1       -0.0611
     36 C           2.8718   -1.4635    0.0000 C.ar    1  UNL1       -0.0611
     37 C           2.0038   -0.9669    0.0000 C.ar    1  UNL1       -0.0617
     38 H           5.7447   -2.2658    0.0000 H       1  UNL1        0.0784
     39 H           6.8119   -3.6057    0.0000 H       1  UNL1        0.0307
     40 H           7.6102   -3.6088    0.0000 H       1  UNL1        0.0307
     41 H           8.3660   -3.1723    0.0000 H       1  UNL1        0.0317
     42 H           8.7625   -2.4795    0.0000 H       1  UNL1        0.0317
     43 H           9.5715    0.3733    0.0000 H       1  UNL1        0.0691
     44 H           5.5094   -0.5907    0.0000 H       1  UNL1        0.0661
     45 H           5.0132    3.4166    0.0000 H       1  UNL1        0.0693
     46 H           4.5527   -1.9431    0.0000 H       1  UNL1        0.0621
     47 H           5.9274   -4.3891    0.0000 H       1  UNL1        0.0621
     48 H           8.4391    3.0100    0.0000 H       1  UNL1        0.0280
     49 H           8.6723    3.8552    0.0000 H       1  UNL1        0.0280
     50 H           7.8271    4.0884    0.0000 H       1  UNL1        0.0280
     51 H           3.1404   -2.7368    0.0000 H       1  UNL1        0.0618
     52 H           4.5152   -5.1828    0.0000 H       1  UNL1        0.0618
     53 H           3.1217   -4.3567    0.0000 H       1  UNL1        0.0618
     54 H          11.0903   -1.5136    0.0000 H       1  UNL1        0.0660
     55 H          11.3140   -0.6658    0.0000 H       1  UNL1        0.0660
     56 H          10.4662   -0.4421    0.0000 H       1  UNL1        0.0660
     57 H           2.8617    1.1564    0.0000 H       1  UNL1        0.0625
     58 H           4.2740   -1.2681    0.0000 H       1  UNL1        0.0625
     59 H           1.4619    0.3410    0.0000 H       1  UNL1        0.0618
     60 H           2.8742   -2.0835    0.0000 H       1  UNL1        0.0618
     61 H           1.4681   -1.2789    0.0000 H       1  UNL1        0.0618
@<TRIPOS>BOND
     1     1     6    1
     2     1    10    1
     3     2    13   ar
     4     2    17   ar
     5     3    19   ar
     6     3    22   ar
     7     4    15    1
     8     4    32    1
     9     5    26    2
    10     6     7    1
    11     6    16    1
    12     6    38    1
    13     7     8    1
    14     7    39    1
    15     7    40    1
    16     8     9    1
    17     8    41    1
    18     8    42    1
    19     9    10   ar
    20     9    15   ar
    21    10    11   ar
    22    11    12   ar
    23    11    13   ar
    24    12    14   ar
    25    12    20   ar
    26    13    18   ar
    27    14    17   ar
    28    14    19   ar
    29    15    18   ar
    30    16    23   ar
    31    16    24   ar
    32    17    21   ar
    33    18    43    1
    34    19    25   ar
    35    20    22   ar
    36    20    44    1
    37    21    26   ar
    38    21    27    1
    39    22    28    1
    40    23    29   ar
    41    23    46    1
    42    24    30   ar
    43    24    47    1
    44    25    26   ar
    45    25    45    1
    46    27    48    1
    47    27    49    1
    48    27    50    1
    49    28    33   ar
    50    28    34   ar
    51    29    31   ar
    52    29    51    1
    53    30    31   ar
    54    30    52    1
    55    31    53    1
    56    32    54    1
    57    32    55    1
    58    32    56    1
    59    33    35   ar
    60    33    57    1
    61    34    36   ar
    62    34    58    1
    63    35    37   ar
    64    35    59    1
    65    36    37   ar
    66    36    60    1
    67    37    61    1
