@<TRIPOS>MOLECULE
IMPHY014297
 41 40 0 0 0
SMALL
GASTEIGER

@<TRIPOS>ATOM
      1 O          11.1972   -1.6550    0.0000 O.2     1  UNL1       -0.2709
      2 N          12.0632   -0.1550    0.0000 N.am    1  UNL1       -0.3116
      3 C          13.7953   -0.1550    0.0000 C.3     1  UNL1       -0.0285
      4 C          14.6613   -0.6550    0.0000 C.3     1  UNL1       -0.0519
      5 C          12.9292   -0.6550    0.0000 C.3     1  UNL1        0.0144
      6 C          13.7953    0.8450    0.0000 C.3     1  UNL1       -0.0610
      7 C          15.5273   -0.1550    0.0000 C.3     1  UNL1       -0.0650
      8 C           7.7331   -0.6550    0.0000 C.3     1  UNL1       -0.0488
      9 C           8.5991   -0.1550    0.0000 C.3     1  UNL1       -0.0343
     10 C           6.8671   -0.1550    0.0000 C.3     1  UNL1       -0.0419
     11 C          11.1972   -0.6550    0.0000 C.2     1  UNL1        0.2366
     12 C           9.4651   -0.6550    0.0000 C.2     1  UNL1       -0.0791
     13 C           6.0010   -0.6550    0.0000 C.3     1  UNL1        0.0101
     14 C          10.3312   -0.1550    0.0000 C.2     1  UNL1       -0.0038
     15 C           5.1350   -0.1550    0.0000 C.1     1  UNL1       -0.0884
     16 C           4.2690    0.3450    0.0000 C.1     1  UNL1       -0.0151
     17 C           3.4030    0.8450    0.0000 C.1     1  UNL1       -0.0182
     18 C           2.5369    1.3450    0.0000 C.1     1  UNL1       -0.1053
     19 H          14.3322    0.1550    0.0000 H       1  UNL1        0.0313
     20 H          14.2628   -1.1300    0.0000 H       1  UNL1        0.0266
     21 H          15.0598   -1.1300    0.0000 H       1  UNL1        0.0266
     22 H          12.5307   -1.1300    0.0000 H       1  UNL1        0.0465
     23 H          13.3278   -1.1300    0.0000 H       1  UNL1        0.0465
     24 H          14.4153    0.8450    0.0000 H       1  UNL1        0.0233
     25 H          13.7953    1.4650    0.0000 H       1  UNL1        0.0233
     26 H          13.1753    0.8450    0.0000 H       1  UNL1        0.0233
     27 H          15.8373   -0.6919    0.0000 H       1  UNL1        0.0230
     28 H          16.0643    0.1550    0.0000 H       1  UNL1        0.0230
     29 H          15.2173    0.3819    0.0000 H       1  UNL1        0.0230
     30 H          12.0632    0.4650    0.0000 H       1  UNL1        0.1490
     31 H           7.3346   -1.1300    0.0000 H       1  UNL1        0.0268
     32 H           8.1316   -1.1300    0.0000 H       1  UNL1        0.0268
     33 H           8.9976    0.3199    0.0000 H       1  UNL1        0.0307
     34 H           8.2006    0.3199    0.0000 H       1  UNL1        0.0307
     35 H           7.2656    0.3199    0.0000 H       1  UNL1        0.0274
     36 H           6.4685    0.3199    0.0000 H       1  UNL1        0.0274
     37 H           9.4651   -1.2750    0.0000 H       1  UNL1        0.0574
     38 H           5.6025   -1.1300    0.0000 H       1  UNL1        0.0398
     39 H           6.3996   -1.1300    0.0000 H       1  UNL1        0.0398
     40 H          10.3312    0.4650    0.0000 H       1  UNL1        0.0666
     41 H           2.0000    1.6550    0.0000 H       1  UNL1        0.1238
@<TRIPOS>BOND
     1     1    11    2
     2     2     5    1
     3     2    11   am
     4     2    30    1
     5     3     4    1
     6     3     5    1
     7     3     6    1
     8     3    19    1
     9     4     7    1
    10     4    20    1
    11     4    21    1
    12     5    22    1
    13     5    23    1
    14     6    24    1
    15     6    25    1
    16     6    26    1
    17     7    27    1
    18     7    28    1
    19     7    29    1
    20     8     9    1
    21     8    10    1
    22     8    31    1
    23     8    32    1
    24     9    12    1
    25     9    33    1
    26     9    34    1
    27    10    13    1
    28    10    35    1
    29    10    36    1
    30    11    14    1
    31    12    14    2
    32    12    37    1
    33    13    15    1
    34    13    38    1
    35    13    39    1
    36    14    40    1
    37    15    16    3
    38    16    17    1
    39    17    18    3
    40    18    41    1
