@<TRIPOS>MOLECULE
IMPHY005711
 59 61 0 0 0
SMALL
GASTEIGER

@<TRIPOS>ATOM
      1 O           8.1301   -2.0152    0.0000 O.2     1  UNL1       -0.4542
      2 O          11.6602    0.0090    0.0000 O.3     1  UNL1       -0.4912
      3 O           6.3817    1.0194    0.0000 O.3     1  UNL1       -0.5055
      4 O           4.6000   -2.0393    0.0000 O.3     1  UNL1       -0.4946
      5 O           8.1301    0.9848    0.0000 O.2     1  UNL1       -0.2863
      6 O          11.6602   -2.0393    0.0000 O.3     1  UNL1       -0.5032
      7 C           8.9961   -0.5152    0.0000 C.ar    1  UNL1        0.0719
      8 C           7.2641   -0.5152    0.0000 C.ar    1  UNL1        0.1064
      9 C           9.8901    0.0195    0.0000 C.ar    1  UNL1        0.0160
     10 C           8.9961   -1.5152    0.0000 C.ar    1  UNL1        0.1432
     11 C           7.2641   -1.5152    0.0000 C.ar    1  UNL1        0.1463
     12 C           8.1301   -0.0152    0.0000 C.ar    1  UNL1        0.2041
     13 C           5.4641   -0.4944    0.0000 C.ar    1  UNL1        0.0402
     14 C           6.3701    0.0195    0.0000 C.ar    1  UNL1        0.1381
     15 C           9.8785    1.0194    0.0000 C.3     1  UNL1       -0.0049
     16 C          10.7961   -0.4944    0.0000 C.ar    1  UNL1        0.1656
     17 C           5.4641   -1.5360    0.0000 C.ar    1  UNL1        0.1305
     18 C           6.3701   -2.0498    0.0000 C.ar    1  UNL1        0.0236
     19 C           9.8901   -2.0498    0.0000 C.ar    1  UNL1        0.0265
     20 C           4.6000    0.0090    0.0000 C.3     1  UNL1       -0.0023
     21 C          10.7961   -1.5360    0.0000 C.ar    1  UNL1        0.1623
     22 C          10.7387    1.5294    0.0000 C.2     1  UNL1       -0.0808
     23 C           3.7320   -0.4877    0.0000 C.2     1  UNL1       -0.0807
     24 C          10.7271    2.5293    0.0000 C.2     1  UNL1       -0.0793
     25 C           2.8680    0.0157    0.0000 C.2     1  UNL1       -0.0793
     26 C          11.5873    3.0393    0.0000 C.3     1  UNL1       -0.0440
     27 C           9.8554    3.0193    0.0000 C.3     1  UNL1       -0.0440
     28 C          12.5282   -0.4877    0.0000 C.3     1  UNL1        0.0790
     29 C           4.6038   -3.0393    0.0000 C.3     1  UNL1        0.0788
     30 C           2.0000   -0.4810    0.0000 C.3     1  UNL1       -0.0440
     31 C           2.8718    1.0156    0.0000 C.3     1  UNL1       -0.0440
     32 H           9.6597    1.5995    0.0000 H       1  UNL1        0.0357
     33 H           9.2692    0.9047    0.0000 H       1  UNL1        0.0357
     34 H           6.3773   -2.6698    0.0000 H       1  UNL1        0.0691
     35 H           5.0003    0.4824    0.0000 H       1  UNL1        0.0358
     36 H           4.2033    0.4855    0.0000 H       1  UNL1        0.0358
     37 H           9.8829   -2.6698    0.0000 H       1  UNL1        0.0692
     38 H          11.2792    1.2256    0.0000 H       1  UNL1        0.0575
     39 H           3.7296   -1.1077    0.0000 H       1  UNL1        0.0575
     40 H           5.8484    1.3356    0.0000 H       1  UNL1        0.2922
     41 H          11.6578   -2.6593    0.0000 H       1  UNL1        0.2923
     42 H          11.9035    2.5060    0.0000 H       1  UNL1        0.0274
     43 H          12.1206    3.3555    0.0000 H       1  UNL1        0.0274
     44 H          11.2711    3.5726    0.0000 H       1  UNL1        0.0274
     45 H          10.1592    3.5598    0.0000 H       1  UNL1        0.0274
     46 H           9.3149    3.3231    0.0000 H       1  UNL1        0.0274
     47 H           9.5516    2.4788    0.0000 H       1  UNL1        0.0274
     48 H          12.2203   -1.0258    0.0000 H       1  UNL1        0.0660
     49 H          13.0663   -0.7956    0.0000 H       1  UNL1        0.0660
     50 H          12.8361    0.0504    0.0000 H       1  UNL1        0.0660
     51 H           3.9838   -3.0417    0.0000 H       1  UNL1        0.0660
     52 H           4.6062   -3.6593    0.0000 H       1  UNL1        0.0660
     53 H           5.2238   -3.0369    0.0000 H       1  UNL1        0.0660
     54 H           1.6921    0.0571    0.0000 H       1  UNL1        0.0274
     55 H           1.4619   -0.7889    0.0000 H       1  UNL1        0.0274
     56 H           2.3079   -1.0191    0.0000 H       1  UNL1        0.0274
     57 H           3.4918    1.0133    0.0000 H       1  UNL1        0.0274
     58 H           2.8742    1.6356    0.0000 H       1  UNL1        0.0274
     59 H           2.2518    1.0180    0.0000 H       1  UNL1        0.0274
@<TRIPOS>BOND
     1     1    10   ar
     2     1    11   ar
     3     2    16    1
     4     2    28    1
     5     3    14    1
     6     3    40    1
     7     4    17    1
     8     4    29    1
     9     5    12    2
    10     6    21    1
    11     6    41    1
    12     7     9   ar
    13     7    10   ar
    14     7    12   ar
    15     8    11   ar
    16     8    12   ar
    17     8    14   ar
    18     9    15    1
    19     9    16   ar
    20    10    19   ar
    21    11    18   ar
    22    13    14   ar
    23    13    17   ar
    24    13    20    1
    25    15    22    1
    26    15    32    1
    27    15    33    1
    28    16    21   ar
    29    17    18   ar
    30    18    34    1
    31    19    21   ar
    32    19    37    1
    33    20    23    1
    34    20    35    1
    35    20    36    1
    36    22    24    2
    37    22    38    1
    38    23    25    2
    39    23    39    1
    40    24    26    1
    41    24    27    1
    42    25    30    1
    43    25    31    1
    44    26    42    1
    45    26    43    1
    46    26    44    1
    47    27    45    1
    48    27    46    1
    49    27    47    1
    50    28    48    1
    51    28    49    1
    52    28    50    1
    53    29    51    1
    54    29    52    1
    55    29    53    1
    56    30    54    1
    57    30    55    1
    58    30    56    1
    59    31    57    1
    60    31    58    1
    61    31    59    1
