@<TRIPOS>MOLECULE
IMPHY001322
 50 54 0 0 0
SMALL
GASTEIGER

@<TRIPOS>ATOM
      1 O           3.4685   -2.9277    0.0000 O.3     1  UNL1       -0.3911
      2 O           6.6555   -1.8921    0.0000 O.3     1  UNL1       -0.4646
      3 O           7.0156   -0.1979    0.0000 O.2     1  UNL1       -0.2453
      4 N           2.6254   -0.1502    0.0000 N.3     1  UNL1       -0.2936
      5 N           5.7049    0.8504    0.0000 N.pl3   1  UNL1       -0.3164
      6 C           3.5397   -0.3445    0.0000 C.3     1  UNL1        0.0373
      7 C           4.1652    0.3501    0.0000 C.3     1  UNL1        0.0534
      8 C           3.8286   -1.2335    0.0000 C.3     1  UNL1        0.0354
      9 C           3.7801    1.3857    0.0000 C.3     1  UNL1       -0.0237
     10 C           5.0795    0.1558    0.0000 C.2     1  UNL1        0.0304
     11 C           2.3366    0.7388    0.0000 C.3     1  UNL1        0.0007
     12 C           4.7429   -1.4278    0.0000 C.3     1  UNL1       -0.0065
     13 C           4.5018    1.9337    0.0000 C.ar    1  UNL1       -0.0130
     14 C           4.1376   -2.1845    0.0000 C.3     1  UNL1        0.0632
     15 C           5.3683   -0.7332    0.0000 C.2     1  UNL1        0.0553
     16 C           3.2031   -1.9281    0.0000 C.2     1  UNL1       -0.0763
     17 C           2.0000   -0.8448    0.0000 C.3     1  UNL1        0.0175
     18 C           5.4161    1.7394    0.0000 C.ar    1  UNL1        0.0353
     19 C           2.2888   -1.7338    0.0000 C.2     1  UNL1       -0.0733
     20 C           4.2129    2.8227    0.0000 C.ar    1  UNL1       -0.0559
     21 C           5.1157   -2.3924    0.0000 C.3     1  UNL1       -0.0381
     22 C           6.3465   -0.9411    0.0000 C.2     1  UNL1        0.3364
     23 C           6.0415    2.4340    0.0000 C.ar    1  UNL1       -0.0403
     24 C           4.8384    3.5173    0.0000 C.ar    1  UNL1       -0.0614
     25 C           5.7527    3.3230    0.0000 C.ar    1  UNL1       -0.0600
     26 C           7.6336   -2.1000    0.0000 C.3     1  UNL1        0.0820
     27 H           3.2771    0.4639    0.0000 H       1  UNL1        0.0484
     28 H           4.3564    1.6144    0.0000 H       1  UNL1        0.0290
     29 H           3.5389    1.9569    0.0000 H       1  UNL1        0.0290
     30 H           2.1034    1.3133    0.0000 H       1  UNL1        0.0427
     31 H           1.7542    0.5263    0.0000 H       1  UNL1        0.0427
     32 H           4.5106   -2.0027    0.0000 H       1  UNL1        0.0326
     33 H           5.2687   -1.7564    0.0000 H       1  UNL1        0.0326
     34 H           4.3292   -2.7742    0.0000 H       1  UNL1        0.0600
     35 H           3.3947   -2.5178    0.0000 H       1  UNL1        0.0576
     36 H           1.6183   -0.3562    0.0000 H       1  UNL1        0.0470
     37 H           1.4526   -1.1359    0.0000 H       1  UNL1        0.0470
     38 H           6.3114    0.7215    0.0000 H       1  UNL1        0.1519
     39 H           1.8740   -2.1945    0.0000 H       1  UNL1        0.0582
     40 H           3.6065    2.9516    0.0000 H       1  UNL1        0.0621
     41 H           4.9868   -2.9989    0.0000 H       1  UNL1        0.0255
     42 H           5.7222   -2.5213    0.0000 H       1  UNL1        0.0255
     43 H           5.2446   -1.7860    0.0000 H       1  UNL1        0.0255
     44 H           6.6480    2.3051    0.0000 H       1  UNL1        0.0636
     45 H           3.6601   -3.5173    0.0000 H       1  UNL1        0.2098
     46 H           4.6468    4.1070    0.0000 H       1  UNL1        0.0618
     47 H           6.1676    3.7837    0.0000 H       1  UNL1        0.0618
     48 H           7.5047   -2.7065    0.0000 H       1  UNL1        0.0661
     49 H           8.2401   -2.2290    0.0000 H       1  UNL1        0.0661
     50 H           7.7625   -1.4936    0.0000 H       1  UNL1        0.0661
@<TRIPOS>BOND
     1     1    14    1
     2     1    45    1
     3     2    22    1
     4     2    26    1
     5     3    22    2
     6     4     6    1
     7     4    11    1
     8     4    17    1
     9     5    10    1
    10     5    18    1
    11     5    38    1
    12     6     7    1
    13     6     8    1
    14     6    27    1
    15     7     9    1
    16     7    10    1
    17     7    13    1
    18     8    12    1
    19     8    14    1
    20     8    16    1
    21     9    11    1
    22     9    28    1
    23     9    29    1
    24    10    15    2
    25    11    30    1
    26    11    31    1
    27    12    15    1
    28    12    32    1
    29    12    33    1
    30    13    18   ar
    31    13    20   ar
    32    14    21    1
    33    14    34    1
    34    15    22    1
    35    16    19    2
    36    16    35    1
    37    17    19    1
    38    17    36    1
    39    17    37    1
    40    18    23   ar
    41    19    39    1
    42    20    24   ar
    43    20    40    1
    44    21    41    1
    45    21    42    1
    46    21    43    1
    47    23    25   ar
    48    23    44    1
    49    24    25   ar
    50    24    46    1
    51    25    47    1
    52    26    48    1
    53    26    49    1
    54    26    50    1
