@<TRIPOS>MOLECULE
IMPHY017167
 19 19 0 0 0
SMALL
GASTEIGER

@<TRIPOS>ATOM
      1 O           2.0000   -1.7500    0.0000 O.2     1  UNL1       -0.2793
      2 N           2.8660   -0.2500    0.0000 N.am    1  UNL1       -0.3040
      3 C           2.8660    1.7500    0.0000 C.3     1  UNL1       -0.0502
      4 C           2.0000    1.2500    0.0000 C.3     1  UNL1       -0.0371
      5 C           3.7320    1.2500    0.0000 C.3     1  UNL1       -0.0371
      6 C           2.0000    0.2500    0.0000 C.3     1  UNL1        0.0144
      7 C           3.7320    0.2500    0.0000 C.3     1  UNL1        0.0144
      8 C           2.8660   -1.2500    0.0000 C.2     1  UNL1        0.2025
      9 H           3.2646    2.2250    0.0000 H       1  UNL1        0.0266
     10 H           2.4675    2.2250    0.0000 H       1  UNL1        0.0266
     11 H           1.7880    1.8326    0.0000 H       1  UNL1        0.0280
     12 H           1.3894    1.1423    0.0000 H       1  UNL1        0.0280
     13 H           4.3426    1.1423    0.0000 H       1  UNL1        0.0280
     14 H           3.9441    1.8326    0.0000 H       1  UNL1        0.0280
     15 H           1.3894    0.3577    0.0000 H       1  UNL1        0.0464
     16 H           1.7880   -0.3326    0.0000 H       1  UNL1        0.0464
     17 H           3.9441   -0.3326    0.0000 H       1  UNL1        0.0464
     18 H           4.3426    0.3577    0.0000 H       1  UNL1        0.0464
     19 H           3.4030   -1.5600    0.0000 H       1  UNL1        0.1253
@<TRIPOS>BOND
     1     1     8    2
     2     2     6    1
     3     2     7    1
     4     2     8   am
     5     3     4    1
     6     3     5    1
     7     3     9    1
     8     3    10    1
     9     4     6    1
    10     4    11    1
    11     4    12    1
    12     5     7    1
    13     5    13    1
    14     5    14    1
    15     6    15    1
    16     6    16    1
    17     7    17    1
    18     7    18    1
    19     8    19    1
