@<TRIPOS>MOLECULE
IMPHY000846
 47 49 0 0 0
SMALL
GASTEIGER

@<TRIPOS>ATOM
      1 O           3.7981   -0.0427    0.0000 O.3     1  UNL1       -0.3874
      2 O           5.5301    1.9573    0.0000 O.3     1  UNL1       -0.3865
      3 O           2.9320    1.4573    0.0000 O.3     1  UNL1       -0.3869
      4 O           2.9320    3.4573    0.0000 O.3     1  UNL1       -0.3924
      5 O           7.2785   -4.0773    0.0000 O.2     1  UNL1       -0.2653
      6 O           9.0602   -1.0186    0.0000 O.2     1  UNL1       -0.2446
      7 N           5.5301   -1.0427    0.0000 N.ar    1  UNL1       -0.3195
      8 N           5.5301   -3.0427    0.0000 N.ar    1  UNL1       -0.2368
      9 N           7.2901   -1.0080    0.0000 N.ar    1  UNL1       -0.1733
     10 N           8.1962   -2.5635    0.0000 N.ar    1  UNL1       -0.2717
     11 C           4.6641    0.4573    0.0000 C.3     1  UNL1        0.1014
     12 C           5.5301   -0.0427    0.0000 C.3     1  UNL1        0.0538
     13 C           4.6641    1.4573    0.0000 C.3     1  UNL1        0.1106
     14 C           3.7981    1.9573    0.0000 C.3     1  UNL1        0.1065
     15 C           4.6641   -1.5427    0.0000 C.ar    1  UNL1        0.0694
     16 C           6.3961   -1.5427    0.0000 C.ar    1  UNL1        0.1705
     17 C           4.6641   -2.5427    0.0000 C.ar    1  UNL1        0.0886
     18 C           3.7702   -1.0080    0.0000 C.ar    1  UNL1       -0.0329
     19 C           6.3961   -2.5427    0.0000 C.ar    1  UNL1        0.1712
     20 C           3.7981    2.9573    0.0000 C.3     1  UNL1        0.0726
     21 C           2.8641   -1.5219    0.0000 C.ar    1  UNL1       -0.0455
     22 C           3.7702   -3.0774    0.0000 C.ar    1  UNL1       -0.0311
     23 C           2.8641   -2.5635    0.0000 C.ar    1  UNL1       -0.0454
     24 C           7.2901   -3.0774    0.0000 C.ar    1  UNL1        0.2817
     25 C           2.0000   -1.0186    0.0000 C.3     1  UNL1       -0.0394
     26 C           2.0000   -3.0668    0.0000 C.3     1  UNL1       -0.0394
     27 C           8.1962   -1.5219    0.0000 C.ar    1  UNL1        0.3505
     28 H           4.6641   -0.1627    0.0000 H       1  UNL1        0.0638
     29 H           6.1407   -0.1504    0.0000 H       1  UNL1        0.0519
     30 H           5.7422    0.5399    0.0000 H       1  UNL1        0.0519
     31 H           4.6641    2.0773    0.0000 H       1  UNL1        0.0646
     32 H           3.7981    1.3373    0.0000 H       1  UNL1        0.0643
     33 H           3.7773   -0.3881    0.0000 H       1  UNL1        0.0641
     34 H           4.4087    2.8496    0.0000 H       1  UNL1        0.0584
     35 H           4.0101    3.5399    0.0000 H       1  UNL1        0.0584
     36 H           3.7773   -3.6973    0.0000 H       1  UNL1        0.0642
     37 H           3.2611    0.2673    0.0000 H       1  UNL1        0.2100
     38 H           5.5301    2.5773    0.0000 H       1  UNL1        0.2100
     39 H           2.3951    1.7673    0.0000 H       1  UNL1        0.2100
     40 H           2.3121   -0.4828    0.0000 H       1  UNL1        0.0278
     41 H           1.4643   -0.7065    0.0000 H       1  UNL1        0.0278
     42 H           1.6879   -1.5543    0.0000 H       1  UNL1        0.0278
     43 H           1.6879   -2.5311    0.0000 H       1  UNL1        0.0278
     44 H           1.4643   -3.3789    0.0000 H       1  UNL1        0.0278
     45 H           2.3121   -3.6026    0.0000 H       1  UNL1        0.0278
     46 H           8.7319   -2.8756    0.0000 H       1  UNL1        0.1735
     47 H           2.9320    4.0773    0.0000 H       1  UNL1        0.2095
@<TRIPOS>BOND
     1    11     1    1
     2     1    37    1
     3    13     2    1
     4     2    38    1
     5    14     3    1
     6     3    39    1
     7     4    20    1
     8     4    47    1
     9     5    24    2
    10     6    27    2
    11     7    12    1
    12     7    15   ar
    13     7    16   ar
    14     8    17   ar
    15     8    19   ar
    16     9    16   ar
    17     9    27   ar
    18    10    24   ar
    19    10    27   ar
    20    10    46    1
    21    11    12    1
    22    11    13    1
    23    11    28    1
    24    12    29    1
    25    12    30    1
    26    13    14    1
    27    13    31    1
    28    14    20    1
    29    14    32    1
    30    15    17   ar
    31    15    18   ar
    32    16    19    1
    33    17    22   ar
    34    18    21   ar
    35    18    33    1
    36    19    24   ar
    37    20    34    1
    38    20    35    1
    39    21    23   ar
    40    21    25    1
    41    22    23   ar
    42    22    36    1
    43    23    26    1
    44    25    40    1
    45    25    41    1
    46    25    42    1
    47    26    43    1
    48    26    44    1
    49    26    45    1
