@<TRIPOS>MOLECULE
IMPHY005357
 16 16 0 0 0
SMALL
GASTEIGER

@<TRIPOS>ATOM
      1 O           3.6750    1.1639    0.0000 O.2     1  UNL1       -0.3352
      2 O           3.9538    2.9239    0.0000 O.2     1  UNL1       -0.2433
      3 N           2.8660    0.5761    0.0000 N.ar    1  UNL1       -0.2106
      4 N           2.0000   -2.9239    0.0000 N.1     1  UNL1       -0.1965
      5 C           2.8660   -0.4239    0.0000 C.3     1  UNL1        0.0689
      6 C           2.0000   -0.9239    0.0000 C.3     1  UNL1        0.0556
      7 C           2.0570    1.1639    0.0000 C.ar    1  UNL1        0.0463
      8 C           2.3660    2.1149    0.0000 C.ar    1  UNL1        0.0437
      9 C           3.3660    2.1149    0.0000 C.ar    1  UNL1        0.3582
     10 C           2.0000   -1.9239    0.0000 C.1     1  UNL1        0.0644
     11 H           3.0781   -1.0065    0.0000 H       1  UNL1        0.0533
     12 H           3.4766   -0.3163    0.0000 H       1  UNL1        0.0533
     13 H           1.7880   -0.3413    0.0000 H       1  UNL1        0.0436
     14 H           1.3894   -1.0316    0.0000 H       1  UNL1        0.0436
     15 H           1.4674    0.9723    0.0000 H       1  UNL1        0.0842
     16 H           2.0016    2.6165    0.0000 H       1  UNL1        0.0705
@<TRIPOS>BOND
     1     1     3   ar
     2     1     9   ar
     3     2     9    2
     4     3     5    1
     5     3     7   ar
     6     4    10    3
     7     5     6    1
     8     5    11    1
     9     5    12    1
    10     6    10    1
    11     6    13    1
    12     6    14    1
    13     7     8   ar
    14     7    15    1
    15     8     9   ar
    16     8    16    1
