@<TRIPOS>MOLECULE
IMPHY001177
 40 43 0 0 0
SMALL
GASTEIGER

@<TRIPOS>ATOM
      1 O           2.5405   -0.9473    0.0000 O.3     1  UNL1       -0.3882
      2 O           2.5247   -2.9955    0.0000 O.3     1  UNL1       -0.3852
      3 O           4.2986    3.1188    0.0000 O.3     1  UNL1       -0.4914
      4 O           2.5247    2.0947    0.0000 O.3     1  UNL1       -0.5033
      5 N           6.0427   -0.9504    0.0000 N.3     1  UNL1       -0.2906
      6 C           5.1767   -1.4504    0.0000 C.3     1  UNL1        0.0414
      7 C           4.3107   -0.9504    0.0000 C.3     1  UNL1        0.0327
      8 C           5.1928   -2.4919    0.0000 C.2     1  UNL1       -0.0521
      9 C           3.4007   -1.4572    0.0000 C.3     1  UNL1        0.0931
     10 C           6.6606   -1.7288    0.0000 C.3     1  UNL1        0.0035
     11 C           6.1808   -2.5990    0.0000 C.3     1  UNL1       -0.0173
     12 C           4.3107    0.0496    0.0000 C.ar    1  UNL1       -0.0319
     13 C           6.0427    0.0496    0.0000 C.3     1  UNL1        0.0250
     14 C           3.3926   -2.4988    0.0000 C.3     1  UNL1        0.1001
     15 C           5.1767    0.5496    0.0000 C.ar    1  UNL1       -0.0261
     16 C           4.2947   -3.0197    0.0000 C.2     1  UNL1       -0.0526
     17 C           3.4007    0.5564    0.0000 C.ar    1  UNL1       -0.0126
     18 C           5.1928    1.5911    0.0000 C.ar    1  UNL1       -0.0116
     19 C           3.3926    1.5980    0.0000 C.ar    1  UNL1        0.1587
     20 C           4.2947    2.1188    0.0000 C.ar    1  UNL1        0.1616
     21 C           5.1665    3.6155    0.0000 C.3     1  UNL1        0.0790
     22 H           4.4406   -1.8754    0.0000 H       1  UNL1        0.0516
     23 H           5.0468   -0.5254    0.0000 H       1  UNL1        0.0393
     24 H           3.4090   -0.8373    0.0000 H       1  UNL1        0.0629
     25 H           7.1595   -2.0970    0.0000 H       1  UNL1        0.0430
     26 H           7.0913   -1.2827    0.0000 H       1  UNL1        0.0430
     27 H           6.0334   -3.2013    0.0000 H       1  UNL1        0.0323
     28 H           6.7584   -2.8244    0.0000 H       1  UNL1        0.0323
     29 H           6.6533   -0.0581    0.0000 H       1  UNL1        0.0476
     30 H           6.2548    0.6322    0.0000 H       1  UNL1        0.0476
     31 H           3.3914   -3.1188    0.0000 H       1  UNL1        0.0664
     32 H           4.2971   -3.6397    0.0000 H       1  UNL1        0.0598
     33 H           2.8674    0.2403    0.0000 H       1  UNL1        0.0658
     34 H           5.7332    1.8949    0.0000 H       1  UNL1        0.0658
     35 H           2.0000   -1.2510    0.0000 H       1  UNL1        0.2099
     36 H           2.5223   -3.6155    0.0000 H       1  UNL1        0.2103
     37 H           2.5223    2.7147    0.0000 H       1  UNL1        0.2923
     38 H           5.4744    3.0774    0.0000 H       1  UNL1        0.0660
     39 H           5.7046    3.9234    0.0000 H       1  UNL1        0.0660
     40 H           4.8586    4.1536    0.0000 H       1  UNL1        0.0660
@<TRIPOS>BOND
     1     9     1    1
     2     1    35    1
     3    14     2    1
     4     2    36    1
     5     3    20    1
     6     3    21    1
     7     4    19    1
     8     4    37    1
     9     5     6    1
    10     5    10    1
    11     5    13    1
    12     6     7    1
    13     6     8    1
    14     6    22    1
    15     7     9    1
    16     7    12    1
    17     7    23    1
    18     8    11    1
    19     8    16    2
    20     9    14    1
    21     9    24    1
    22    10    11    1
    23    10    25    1
    24    10    26    1
    25    11    27    1
    26    11    28    1
    27    12    15   ar
    28    12    17   ar
    29    13    15    1
    30    13    29    1
    31    13    30    1
    32    14    16    1
    33    14    31    1
    34    15    18   ar
    35    16    32    1
    36    17    19   ar
    37    17    33    1
    38    18    20   ar
    39    18    34    1
    40    19    20   ar
    41    21    38    1
    42    21    39    1
    43    21    40    1
