@<TRIPOS>MOLECULE
IMPHY017022
 28 27 0 0 0
SMALL
GASTEIGER

@<TRIPOS>ATOM
      1 S           5.4641   -0.2500    0.0000 S.3     1  UNL1       -0.0931
      2 S           6.3301    0.2500    0.0000 S.3     1  UNL1       -0.0931
      3 C           3.7320   -0.2500    0.0000 C.3     1  UNL1       -0.0435
      4 C           8.0622    0.2500    0.0000 C.3     1  UNL1       -0.0435
      5 C           2.8660    0.2500    0.0000 C.3     1  UNL1       -0.0551
      6 C           8.9282   -0.2500    0.0000 C.3     1  UNL1       -0.0551
      7 C           4.5981    0.2500    0.0000 C.3     1  UNL1        0.0039
      8 C           7.1962   -0.2500    0.0000 C.3     1  UNL1        0.0039
      9 C           2.0000   -0.2500    0.0000 C.3     1  UNL1       -0.0653
     10 C           9.7942    0.2500    0.0000 C.3     1  UNL1       -0.0653
     11 H           3.3335   -0.7249    0.0000 H       1  UNL1        0.0273
     12 H           4.1306   -0.7249    0.0000 H       1  UNL1        0.0273
     13 H           8.4607    0.7249    0.0000 H       1  UNL1        0.0273
     14 H           7.6636    0.7249    0.0000 H       1  UNL1        0.0273
     15 H           3.2646    0.7249    0.0000 H       1  UNL1        0.0263
     16 H           2.4675    0.7249    0.0000 H       1  UNL1        0.0263
     17 H           8.5297   -0.7249    0.0000 H       1  UNL1        0.0263
     18 H           9.3267   -0.7249    0.0000 H       1  UNL1        0.0263
     19 H           4.9966    0.7249    0.0000 H       1  UNL1        0.0384
     20 H           4.1996    0.7249    0.0000 H       1  UNL1        0.0384
     21 H           6.7976   -0.7249    0.0000 H       1  UNL1        0.0384
     22 H           7.5947   -0.7249    0.0000 H       1  UNL1        0.0384
     23 H           1.6900    0.2869    0.0000 H       1  UNL1        0.0230
     24 H           1.4631   -0.5600    0.0000 H       1  UNL1        0.0230
     25 H           2.3100   -0.7869    0.0000 H       1  UNL1        0.0230
     26 H          10.1042   -0.2869    0.0000 H       1  UNL1        0.0230
     27 H          10.3312    0.5600    0.0000 H       1  UNL1        0.0230
     28 H           9.4842    0.7869    0.0000 H       1  UNL1        0.0230
@<TRIPOS>BOND
     1     1     2    1
     2     1     7    1
     3     2     8    1
     4     3     5    1
     5     3     7    1
     6     3    11    1
     7     3    12    1
     8     4     6    1
     9     4     8    1
    10     4    13    1
    11     4    14    1
    12     5     9    1
    13     5    15    1
    14     5    16    1
    15     6    10    1
    16     6    17    1
    17     6    18    1
    18     7    19    1
    19     7    20    1
    20     8    21    1
    21     8    22    1
    22     9    23    1
    23     9    24    1
    24     9    25    1
    25    10    26    1
    26    10    27    1
    27    10    28    1
