@<TRIPOS>MOLECULE
IMPHY008934
 33 34 0 0 0
SMALL
GASTEIGER

@<TRIPOS>ATOM
      1 CL          6.0682   -1.2704    0.0000 Cl      1  UNL1        0.0000
      2 O           6.0682   -0.2704    0.0000 O.2     2  UNL2       -0.1997
      3 O           7.8003    1.7296    0.0000 O.3     2  UNL2       -0.4995
      4 O           4.3198    2.7642    0.0000 O.3     2  UNL2       -0.5057
      5 O           2.5381   -0.2945    0.0000 O.3     2  UNL2       -0.5063
      6 O           8.6663   -2.7704    0.0000 O.3     2  UNL2       -0.5033
      7 O          10.3984   -1.7704    0.0000 O.3     2  UNL2       -0.5033
      8 C           5.2022    1.2296    0.0000 C.ar    2  UNL2        0.1241
      9 C           5.2022    0.2296    0.0000 C.ar    2  UNL2        0.3708
     10 C           6.9343    0.2296    0.0000 C.ar    2  UNL2        0.4043
     11 C           7.8003   -0.2704    0.0000 C.ar    2  UNL2        0.0865
     12 C           6.9343    1.2296    0.0000 C.ar    2  UNL2        0.2238
     13 C           6.0682    1.7296    0.0000 C.ar    2  UNL2        0.0090
     14 C           4.3083    1.7643    0.0000 C.ar    2  UNL2        0.1366
     15 C           4.3083   -0.3051    0.0000 C.ar    2  UNL2        0.0847
     16 C           7.8003   -1.2704    0.0000 C.ar    2  UNL2       -0.0003
     17 C           3.4022    0.2088    0.0000 C.ar    2  UNL2        0.1293
     18 C           3.4022    1.2504    0.0000 C.ar    2  UNL2        0.0225
     19 C           8.6663    0.2296    0.0000 C.ar    2  UNL2       -0.0418
     20 C           8.6663   -1.7704    0.0000 C.ar    2  UNL2        0.1591
     21 C           9.5323   -0.2704    0.0000 C.ar    2  UNL2       -0.0157
     22 C           9.5323   -1.2704    0.0000 C.ar    2  UNL2        0.1583
     23 H           6.0682    2.3496    0.0000 H       2  UNL2        0.0667
     24 H           4.3154   -0.9250    0.0000 H       2  UNL2        0.0749
     25 H           7.2634   -1.5804    0.0000 H       2  UNL2        0.0664
     26 H           8.6663    0.8496    0.0000 H       2  UNL2        0.0628
     27 H           2.8665    1.5625    0.0000 H       2  UNL2        0.0691
     28 H          10.0693    0.0396    0.0000 H       2  UNL2        0.0655
     29 H           7.8003    2.3496    0.0000 H       2  UNL2        0.2925
     30 H           3.7865    3.0804    0.0000 H       2  UNL2        0.2922
     31 H           2.0000    0.0134    0.0000 H       2  UNL2        0.2921
     32 H           9.2033   -3.0804    0.0000 H       2  UNL2        0.2923
     33 H          10.9353   -1.4604    0.0000 H       2  UNL2        0.2923
@<TRIPOS>UNITY_ATOM_ATTR
1 1
charge -1
2 1
charge 1
@<TRIPOS>BOND
     1     2     9   ar
     2     2    10   ar
     3     3    12    1
     4     3    29    1
     5     4    14    1
     6     4    30    1
     7     5    17    1
     8     5    31    1
     9     6    20    1
    10     6    32    1
    11     7    22    1
    12     7    33    1
    13     8     9   ar
    14     8    13   ar
    15     8    14   ar
    16     9    15   ar
    17    10    11    1
    18    10    12   ar
    19    11    16   ar
    20    11    19   ar
    21    12    13   ar
    22    13    23    1
    23    14    18   ar
    24    15    17   ar
    25    15    24    1
    26    16    20   ar
    27    16    25    1
    28    17    18   ar
    29    18    27    1
    30    19    21   ar
    31    19    26    1
    32    20    22   ar
    33    21    22   ar
    34    21    28    1
