@<TRIPOS>MOLECULE
IMPHY008300
 81 85 0 0 0
SMALL
GASTEIGER

@<TRIPOS>ATOM
      1 O           2.5357   -1.8922    0.0000 O.3     1  UNL1       -0.3907
      2 O           4.3500   -3.6701    0.0000 O.3     1  UNL1       -0.4802
      3 O          11.4608    1.1943    0.0000 O.3     1  UNL1       -0.4802
      4 O           2.8467   -2.8098    0.0000 O.2     1  UNL1       -0.2503
      5 O          10.6064   -0.3123    0.0000 O.2     1  UNL1       -0.2504
      6 C           7.0628   -0.3398    0.0000 C.3     1  UNL1       -0.0194
      7 C           6.1968    0.1601    0.0000 C.3     1  UNL1       -0.0257
      8 C           5.2868   -0.3467    0.0000 C.3     1  UNL1       -0.0244
      9 C           7.9288    0.1601    0.0000 C.3     1  UNL1       -0.0051
     10 C           5.2787   -1.3883    0.0000 C.3     1  UNL1       -0.0174
     11 C           7.0789   -1.3814    0.0000 C.3     1  UNL1       -0.0463
     12 C           7.9288    1.1602    0.0000 C.2     1  UNL1       -0.0629
     13 C           6.1808   -1.9091    0.0000 C.3     1  UNL1       -0.0481
     14 C           8.8228    1.6948    0.0000 C.3     1  UNL1       -0.0031
     15 C           6.1968    1.1602    0.0000 C.3     1  UNL1       -0.0306
     16 C           4.3433   -1.9380    0.0000 C.3     1  UNL1        0.0938
     17 C           8.8228   -0.3745    0.0000 C.3     1  UNL1       -0.0424
     18 C           9.7288    1.1810    0.0000 C.3     1  UNL1        0.0741
     19 C           4.3599    0.2174    0.0000 C.3     1  UNL1       -0.0447
     20 C           9.7288    0.1393    0.0000 C.3     1  UNL1       -0.0359
     21 C           7.7056   -1.1059    0.0000 C.3     1  UNL1       -0.0585
     22 C           7.0628    1.6602    0.0000 C.2     1  UNL1       -0.0836
     23 C           5.2945    0.6533    0.0000 C.3     1  UNL1       -0.0590
     24 C           3.4037   -1.3955    0.0000 C.3     1  UNL1        0.0710
     25 C           8.2709   -0.7795    0.0000 C.3     1  UNL1       -0.0553
     26 C           3.4120   -0.3106    0.0000 C.3     1  UNL1       -0.0253
     27 C           8.7977    2.7795    0.0000 C.3     1  UNL1       -0.0403
     28 C          10.6726    1.7162    0.0000 C.3     1  UNL1       -0.0362
     29 C           9.7288    3.3364    0.0000 C.3     1  UNL1       -0.0343
     30 C          10.6726    2.8012    0.0000 C.3     1  UNL1       -0.0468
     31 C           4.8466   -2.8021    0.0000 C.3     1  UNL1       -0.0467
     32 C           3.8467   -2.8060    0.0000 C.2     1  UNL1        0.3135
     33 C          10.5987    0.6877    0.0000 C.2     1  UNL1        0.3115
     34 C          10.2188    4.2082    0.0000 C.3     1  UNL1       -0.0598
     35 C           9.2188    4.1966    0.0000 C.3     1  UNL1       -0.0598
     36 H           6.9329    0.5851    0.0000 H       1  UNL1        0.0315
     37 H           5.2820   -2.2383    0.0000 H       1  UNL1        0.0317
     38 H           7.2969   -1.9618    0.0000 H       1  UNL1        0.0271
     39 H           7.6880   -1.2659    0.0000 H       1  UNL1        0.0271
     40 H           5.7835   -2.3851    0.0000 H       1  UNL1        0.0269
     41 H           6.5818   -2.3820    0.0000 H       1  UNL1        0.0269
     42 H           9.5522    2.1311    0.0000 H       1  UNL1        0.0357
     43 H           5.9847    1.7428    0.0000 H       1  UNL1        0.0310
     44 H           5.5862    1.0525    0.0000 H       1  UNL1        0.0310
     45 H           8.4182   -0.8443    0.0000 H       1  UNL1        0.0274
     46 H           9.2164   -0.8535    0.0000 H       1  UNL1        0.0274
     47 H           4.7681    0.6840    0.0000 H       1  UNL1        0.0271
     48 H           3.9700    0.6994    0.0000 H       1  UNL1        0.0271
     49 H           9.9379   -0.4444    0.0000 H       1  UNL1        0.0276
     50 H          10.3397    0.2454    0.0000 H       1  UNL1        0.0276
     51 H           7.2306   -1.5044    0.0000 H       1  UNL1        0.0235
     52 H           8.1041   -1.5808    0.0000 H       1  UNL1        0.0235
     53 H           8.1805   -0.7074    0.0000 H       1  UNL1        0.0235
     54 H           7.0628    2.2802    0.0000 H       1  UNL1        0.0572
     55 H           5.9145    0.6485    0.0000 H       1  UNL1        0.0235
     56 H           5.2993    1.2733    0.0000 H       1  UNL1        0.0235
     57 H           4.6745    0.6581    0.0000 H       1  UNL1        0.0235
     58 H           3.4025   -2.0155    0.0000 H       1  UNL1        0.0604
     59 H           7.6884   -0.9916    0.0000 H       1  UNL1        0.0238
     60 H           8.4830   -1.3621    0.0000 H       1  UNL1        0.0238
     61 H           8.8535   -0.5674    0.0000 H       1  UNL1        0.0238
     62 H           3.2075    0.2747    0.0000 H       1  UNL1        0.0291
     63 H           2.8004   -0.4119    0.0000 H       1  UNL1        0.0291
     64 H           8.5752    3.3582    0.0000 H       1  UNL1        0.0276
     65 H           8.1894    2.6593    0.0000 H       1  UNL1        0.0276
     66 H          10.8817    1.1325    0.0000 H       1  UNL1        0.0276
     67 H          11.2835    1.8223    0.0000 H       1  UNL1        0.0276
     68 H          11.2835    2.6951    0.0000 H       1  UNL1        0.0271
     69 H          10.8817    3.3849    0.0000 H       1  UNL1        0.0271
     70 H           4.3109   -3.1142    0.0000 H       1  UNL1        0.0241
     71 H           5.1587   -3.3378    0.0000 H       1  UNL1        0.0241
     72 H           5.3824   -2.4900    0.0000 H       1  UNL1        0.0241
     73 H           9.7522    4.5128    0.0000 H       1  UNL1        0.0235
     74 H           8.9027    4.7299    0.0000 H       1  UNL1        0.0235
     75 H           8.6855    3.8804    0.0000 H       1  UNL1        0.0235
     76 H          10.7593    3.9044    0.0000 H       1  UNL1        0.0235
     77 H          10.5226    4.7487    0.0000 H       1  UNL1        0.0235
     78 H           9.6783    4.5120    0.0000 H       1  UNL1        0.0235
     79 H           2.0000   -1.5801    0.0000 H       1  UNL1        0.2098
     80 H           4.0421   -4.2082    0.0000 H       1  UNL1        0.2951
     81 H          12.0001    0.8885    0.0000 H       1  UNL1        0.2951
@<TRIPOS>BOND
     1    24     1    1
     2     1    79    1
     3     2    32    1
     4     2    80    1
     5     3    33    1
     6     3    81    1
     7     4    32    2
     8     5    33    2
     9     6     7    1
    10     6     9    1
    11     6    11    1
    12     6    21    1
    13     7     8    1
    14     7    15    1
    15     7    36    1
    16     8    10    1
    17     8    19    1
    18     8    23    1
    19     9    12    1
    20     9    17    1
    21     9    25    1
    22    10    13    1
    23    10    16    1
    24    10    37    1
    25    11    13    1
    26    11    38    1
    27    11    39    1
    28    12    14    1
    29    12    22    2
    30    13    40    1
    31    13    41    1
    32    14    18    1
    33    14    27    1
    34    14    42    1
    35    15    22    1
    36    15    43    1
    37    15    44    1
    38    16    24    1
    39    16    31    1
    40    16    32    1
    41    17    20    1
    42    17    45    1
    43    17    46    1
    44    18    20    1
    45    18    28    1
    46    18    33    1
    47    19    26    1
    48    19    47    1
    49    19    48    1
    50    20    49    1
    51    20    50    1
    52    21    51    1
    53    21    52    1
    54    21    53    1
    55    22    54    1
    56    23    55    1
    57    23    56    1
    58    23    57    1
    59    24    26    1
    60    24    58    1
    61    25    59    1
    62    25    60    1
    63    25    61    1
    64    26    62    1
    65    26    63    1
    66    27    29    1
    67    27    64    1
    68    27    65    1
    69    28    30    1
    70    28    66    1
    71    28    67    1
    72    29    30    1
    73    29    34    1
    74    29    35    1
    75    30    68    1
    76    30    69    1
    77    31    70    1
    78    31    71    1
    79    31    72    1
    80    34    76    1
    81    34    77    1
    82    34    78    1
    83    35    73    1
    84    35    74    1
    85    35    75    1
