@<TRIPOS>MOLECULE
IMPHY013775
 17 16 0 0 0
SMALL
GASTEIGER

@<TRIPOS>ATOM
      1 O           2.8660    0.7500    0.0000 O.3     1  UNL1       -0.4679
      2 O           3.7320   -0.7500    0.0000 O.2     1  UNL1       -0.2509
      3 C           5.4641    0.2500    0.0000 C.3     1  UNL1       -0.0458
      4 C           4.5981    0.7500    0.0000 C.3     1  UNL1        0.0447
      5 C           6.3301    0.7500    0.0000 C.3     1  UNL1       -0.0648
      6 C           3.7320    0.2500    0.0000 C.2     1  UNL1        0.3068
      7 C           2.0000    0.2500    0.0000 C.3     1  UNL1        0.0817
      8 H           5.0656   -0.2249    0.0000 H       1  UNL1        0.0268
      9 H           5.8626   -0.2249    0.0000 H       1  UNL1        0.0268
     10 H           4.9966    1.2250    0.0000 H       1  UNL1        0.0377
     11 H           4.1996    1.2250    0.0000 H       1  UNL1        0.0377
     12 H           6.6401    0.2131    0.0000 H       1  UNL1        0.0230
     13 H           6.8671    1.0600    0.0000 H       1  UNL1        0.0230
     14 H           6.0201    1.2869    0.0000 H       1  UNL1        0.0230
     15 H           1.6900    0.7869    0.0000 H       1  UNL1        0.0661
     16 H           1.4631   -0.0600    0.0000 H       1  UNL1        0.0661
     17 H           2.3100   -0.2869    0.0000 H       1  UNL1        0.0661
@<TRIPOS>BOND
     1     1     6    1
     2     1     7    1
     3     2     6    2
     4     3     4    1
     5     3     5    1
     6     3     8    1
     7     3     9    1
     8     4     6    1
     9     4    10    1
    10     4    11    1
    11     5    12    1
    12     5    13    1
    13     5    14    1
    14     7    15    1
    15     7    16    1
    16     7    17    1
