@<TRIPOS>MOLECULE
IMPHY005105
 61 67 0 0 0
SMALL
GASTEIGER

@<TRIPOS>ATOM
      1 O           8.6157    1.3558    0.0000 O.3     1  UNL1       -0.4444
      2 O           5.1508    1.4693    0.0000 O.3     1  UNL1       -0.4444
      3 O           7.8191    3.5156    0.0000 O.3     1  UNL1       -0.3827
      4 O           7.2056   -1.7905    0.0000 O.2     1  UNL1       -0.4504
      5 O           6.2069   -1.7451    0.0000 O.3     1  UNL1       -0.5062
      6 O          10.8156   -1.5210    0.0000 O.3     1  UNL1       -0.5058
      7 O           2.7085   -1.2048    0.0000 O.3     1  UNL1       -0.5065
      8 O          10.0361   -3.1852    0.0000 O.2     1  UNL1       -0.2830
      9 O           8.3020   -4.3548    0.0000 O.3     1  UNL1       -0.5007
     10 O           5.5472    5.5306    0.0000 O.3     1  UNL1       -0.5068
     11 O           3.9228   -5.0722    0.0000 O.3     1  UNL1       -0.5068
     12 C           6.8413    0.7010    0.0000 C.3     1  UNL1        0.0568
     13 C           7.3191    2.6496    0.0000 C.3     1  UNL1        0.1477
     14 C           6.5824    1.6669    0.0000 C.3     1  UNL1        0.3073
     15 C           8.0623   -0.1646    0.0000 C.ar    1  UNL1        0.0479
     16 C           5.5696   -0.0936    0.0000 C.ar    1  UNL1        0.0463
     17 C           8.8913    0.3945    0.0000 C.ar    1  UNL1        0.1366
     18 C           4.7924    0.5357    0.0000 C.ar    1  UNL1        0.1365
     19 C           6.3236    2.6329    0.0000 C.ar    1  UNL1        0.0389
     20 C           8.1189   -1.2047    0.0000 C.ar    1  UNL1        0.1504
     21 C           5.4225   -1.1248    0.0000 C.ar    1  UNL1        0.1276
     22 C           9.8345   -0.0476    0.0000 C.ar    1  UNL1        0.0230
     23 C           9.0516   -1.6686    0.0000 C.ar    1  UNL1        0.1095
     24 C           3.8144    0.1774    0.0000 C.ar    1  UNL1        0.0222
     25 C           9.9151   -1.0861    0.0000 C.ar    1  UNL1        0.1348
     26 C           5.3577    2.8917    0.0000 C.ar    1  UNL1       -0.0477
     27 C           7.0307    3.3400    0.0000 C.ar    1  UNL1       -0.0477
     28 C           4.4530   -1.5056    0.0000 C.ar    1  UNL1        0.0218
     29 C           3.6435   -0.8501    0.0000 C.ar    1  UNL1        0.1238
     30 C           9.1356   -2.7503    0.0000 C.ar    1  UNL1        0.2379
     31 C           7.2646   -2.8739    0.0000 C.ar    1  UNL1        0.1806
     32 C           5.0989    3.8576    0.0000 C.ar    1  UNL1       -0.0197
     33 C           6.7719    4.3059    0.0000 C.ar    1  UNL1       -0.0197
     34 C           8.2361   -3.3570    0.0000 C.ar    1  UNL1        0.2082
     35 C           5.8060    4.5647    0.0000 C.ar    1  UNL1        0.1169
     36 C           6.4292   -3.4234    0.0000 C.ar    1  UNL1        0.0213
     37 C           6.4874   -4.4218    0.0000 C.ar    1  UNL1       -0.0475
     38 C           5.5355   -2.9747    0.0000 C.ar    1  UNL1       -0.0475
     39 C           5.6519   -4.9713    0.0000 C.ar    1  UNL1       -0.0195
     40 C           4.7001   -3.5243    0.0000 C.ar    1  UNL1       -0.0195
     41 C           4.7583   -4.5226    0.0000 C.ar    1  UNL1        0.1169
     42 H           7.0613   -0.1200    0.0000 H       1  UNL1        0.0430
     43 H           6.8016    2.9911    0.0000 H       1  UNL1        0.0685
     44 H           8.4391    3.5156    0.0000 H       1  UNL1        0.2102
     45 H          10.3444    0.3050    0.0000 H       1  UNL1        0.0691
     46 H           3.3371    0.5732    0.0000 H       1  UNL1        0.0691
     47 H           4.9193    2.4533    0.0000 H       1  UNL1        0.0624
     48 H           7.6296    3.1795    0.0000 H       1  UNL1        0.0624
     49 H           4.3584   -2.1183    0.0000 H       1  UNL1        0.0691
     50 H           4.5000    4.0181    0.0000 H       1  UNL1        0.0654
     51 H           7.2103    4.7443    0.0000 H       1  UNL1        0.0654
     52 H           6.1170   -2.3586    0.0000 H       1  UNL1        0.2921
     53 H          11.3283   -1.1723    0.0000 H       1  UNL1        0.2922
     54 H           2.2282   -0.8128    0.0000 H       1  UNL1        0.2921
     55 H           8.8582   -4.6288    0.0000 H       1  UNL1        0.2924
     56 H           7.0415   -4.7000    0.0000 H       1  UNL1        0.0626
     57 H           5.4994   -2.3558    0.0000 H       1  UNL1        0.0626
     58 H           4.9483    5.6911    0.0000 H       1  UNL1        0.2921
     59 H           5.6880   -5.5903    0.0000 H       1  UNL1        0.0654
     60 H           4.1460   -3.2461    0.0000 H       1  UNL1        0.0654
     61 H           3.9589   -5.6911    0.0000 H       1  UNL1        0.2921
@<TRIPOS>BOND
     1     1    14    1
     2     1    17    1
     3     2    14    1
     4     2    18    1
     5    13     3    1
     6     3    44    1
     7     4    20   ar
     8     4    31   ar
     9     5    21    1
    10     5    52    1
    11     6    25    1
    12     6    53    1
    13     7    29    1
    14     7    54    1
    15     8    30    2
    16     9    34    1
    17     9    55    1
    18    10    35    1
    19    10    58    1
    20    11    41    1
    21    11    61    1
    22    12    13    1
    23    12    15    1
    24    12    16    1
    25    12    42    1
    26    13    14    1
    27    13    43    1
    28    14    19    1
    29    15    17   ar
    30    15    20   ar
    31    16    18   ar
    32    16    21   ar
    33    17    22   ar
    34    18    24   ar
    35    19    26   ar
    36    19    27   ar
    37    20    23   ar
    38    21    28   ar
    39    22    25   ar
    40    22    45    1
    41    23    25   ar
    42    23    30   ar
    43    24    29   ar
    44    24    46    1
    45    26    32   ar
    46    26    47    1
    47    27    33   ar
    48    27    48    1
    49    28    29   ar
    50    28    49    1
    51    30    34   ar
    52    31    34   ar
    53    31    36    1
    54    32    35   ar
    55    32    50    1
    56    33    35   ar
    57    33    51    1
    58    36    37   ar
    59    36    38   ar
    60    37    39   ar
    61    37    56    1
    62    38    40   ar
    63    38    57    1
    64    39    41   ar
    65    39    59    1
    66    40    41   ar
    67    40    60    1
