@<TRIPOS>MOLECULE
IMPHY009289
 111 113 0 0 0
SMALL
GASTEIGER

@<TRIPOS>ATOM
      1 O          12.2311    2.4683    0.0000 O.3     1  UNL1       -0.3683
      2 O          14.3002    1.7960    0.0000 O.3     1  UNL1       -0.3683
      3 O          10.2631    1.7689    0.0000 O.3     1  UNL1       -0.3892
      4 O          15.4812    0.0735    0.0000 O.3     1  UNL1       -0.3892
      5 O           6.8747    2.4892    0.0000 O.3     1  UNL1       -0.3918
      6 O          23.3928   -3.4490    0.0000 O.3     1  UNL1       -0.3918
      7 O          27.9590   -3.4718    0.0000 O.3     1  UNL1       -0.4542
      8 O          26.8375   -4.8567    0.0000 O.2     1  UNL1       -0.2453
      9 C          13.0401    3.0561    0.0000 C.3     1  UNL1        0.0853
     10 C          13.9912    2.7471    0.0000 C.3     1  UNL1        0.0853
     11 C          12.7311    4.0072    0.0000 C.3     1  UNL1       -0.0217
     12 C          14.8002    3.3349    0.0000 C.3     1  UNL1       -0.0217
     13 C          11.4221    3.0561    0.0000 C.3     1  UNL1        0.0850
     14 C          15.3002    1.7960    0.0000 C.3     1  UNL1        0.0850
     15 C          11.7311    4.0072    0.0000 C.3     1  UNL1       -0.0217
     16 C          15.6092    2.7471    0.0000 C.3     1  UNL1       -0.0217
     17 C          10.4710    2.7471    0.0000 C.3     1  UNL1        0.0813
     18 C          15.8880    0.9870    0.0000 C.3     1  UNL1        0.0813
     19 C           9.7279    3.4162    0.0000 C.3     1  UNL1       -0.0243
     20 C          16.8825    1.0916    0.0000 C.3     1  UNL1       -0.0244
     21 C           8.7768    3.1072    0.0000 C.3     1  UNL1       -0.0483
     22 C          17.4703    0.2825    0.0000 C.3     1  UNL1       -0.0506
     23 C           8.0337    3.7763    0.0000 C.3     1  UNL1       -0.0268
     24 C          18.4648    0.3871    0.0000 C.3     1  UNL1       -0.0530
     25 C           7.0826    3.4673    0.0000 C.3     1  UNL1        0.0553
     26 C          19.0526   -0.4220    0.0000 C.3     1  UNL1       -0.0531
     27 C           6.3395    4.1364    0.0000 C.3     1  UNL1       -0.0269
     28 C          20.0471   -0.3174    0.0000 C.3     1  UNL1       -0.0531
     29 C          20.6349   -1.1264    0.0000 C.3     1  UNL1       -0.0531
     30 C           5.3884    3.8274    0.0000 C.3     1  UNL1       -0.0507
     31 C          21.6294   -1.0219    0.0000 C.3     1  UNL1       -0.0530
     32 C           4.6453    4.4966    0.0000 C.3     1  UNL1       -0.0530
     33 C          22.2172   -1.8309    0.0000 C.3     1  UNL1       -0.0507
     34 C          23.2117   -1.7264    0.0000 C.3     1  UNL1       -0.0268
     35 C           3.6942    4.1876    0.0000 C.3     1  UNL1       -0.0533
     36 C          23.7995   -2.5354    0.0000 C.3     1  UNL1        0.0556
     37 C          24.7940   -2.4309    0.0000 C.3     1  UNL1       -0.0227
     38 C           2.9511    4.8567    0.0000 C.3     1  UNL1       -0.0559
     39 C          25.3818   -3.2399    0.0000 C.3     1  UNL1       -0.0188
     40 C           2.0000    4.5477    0.0000 C.3     1  UNL1       -0.0653
     41 C          26.3763   -3.1354    0.0000 C.2     1  UNL1        0.0362
     42 C          26.8763   -2.2694    0.0000 C.2     1  UNL1       -0.0343
     43 C          27.8545   -2.4773    0.0000 C.3     1  UNL1        0.1195
     44 C          27.0455   -3.8785    0.0000 C.2     1  UNL1        0.3355
     45 C          28.5976   -1.8081    0.0000 C.3     1  UNL1       -0.0240
     46 H          13.1371    2.4437    0.0000 H       1  UNL1        0.0622
     47 H          13.8942    3.3595    0.0000 H       1  UNL1        0.0622
     48 H          13.3375    4.1361    0.0000 H       1  UNL1        0.0292
     49 H          12.6663    4.6238    0.0000 H       1  UNL1        0.0292
     50 H          15.2150    3.7956    0.0000 H       1  UNL1        0.0292
     51 H          14.3853    3.7956    0.0000 H       1  UNL1        0.0292
     52 H          11.3251    2.4437    0.0000 H       1  UNL1        0.0622
     53 H          15.0187    1.2436    0.0000 H       1  UNL1        0.0622
     54 H          11.7959    4.6238    0.0000 H       1  UNL1        0.0292
     55 H          11.1246    4.1361    0.0000 H       1  UNL1        0.0292
     56 H          16.1756    2.4949    0.0000 H       1  UNL1        0.0292
     57 H          15.9192    3.2840    0.0000 H       1  UNL1        0.0292
     58 H           9.8814    2.5555    0.0000 H       1  UNL1        0.0619
     59 H          16.2524    0.4854    0.0000 H       1  UNL1        0.0619
     60 H          10.2164    3.7979    0.0000 H       1  UNL1        0.0291
     61 H           9.4368    3.9636    0.0000 H       1  UNL1        0.0291
     62 H          17.4397    1.3633    0.0000 H       1  UNL1        0.0291
     63 H          16.7116    1.6875    0.0000 H       1  UNL1        0.0291
     64 H           8.2882    2.7255    0.0000 H       1  UNL1        0.0267
     65 H           9.0679    2.5598    0.0000 H       1  UNL1        0.0267
     66 H          16.9130    0.0107    0.0000 H       1  UNL1        0.0266
     67 H          17.6412   -0.3135    0.0000 H       1  UNL1        0.0266
     68 H           9.6734    1.5774    0.0000 H       1  UNL1        0.2099
     69 H          15.8456   -0.4281    0.0000 H       1  UNL1        0.2099
     70 H           8.5222    4.1580    0.0000 H       1  UNL1        0.0290
     71 H           7.7426    4.3238    0.0000 H       1  UNL1        0.0290
     72 H          19.0220    0.6588    0.0000 H       1  UNL1        0.0265
     73 H          18.2939    0.9830    0.0000 H       1  UNL1        0.0265
     74 H           6.4930    3.2757    0.0000 H       1  UNL1        0.0593
     75 H          18.4953   -0.6937    0.0000 H       1  UNL1        0.0265
     76 H          19.2235   -1.0179    0.0000 H       1  UNL1        0.0265
     77 H          20.6043   -0.0456    0.0000 H       1  UNL1        0.0265
     78 H          19.8762    0.2786    0.0000 H       1  UNL1        0.0265
     79 H           6.8280    4.5182    0.0000 H       1  UNL1        0.0290
     80 H           6.0484    4.6839    0.0000 H       1  UNL1        0.0290
     81 H          20.0776   -1.3982    0.0000 H       1  UNL1        0.0265
     82 H          20.8058   -1.7224    0.0000 H       1  UNL1        0.0265
     83 H           4.8998    3.4457    0.0000 H       1  UNL1        0.0266
     84 H           5.6795    3.2800    0.0000 H       1  UNL1        0.0266
     85 H          22.1867   -0.7501    0.0000 H       1  UNL1        0.0265
     86 H          21.4585   -0.4259    0.0000 H       1  UNL1        0.0265
     87 H           6.2850    2.2976    0.0000 H       1  UNL1        0.2098
     88 H           5.1338    4.8783    0.0000 H       1  UNL1        0.0265
     89 H           4.3542    5.0440    0.0000 H       1  UNL1        0.0265
     90 H          21.6599   -2.1027    0.0000 H       1  UNL1        0.0266
     91 H          22.3881   -2.4269    0.0000 H       1  UNL1        0.0266
     92 H          23.7690   -1.4546    0.0000 H       1  UNL1        0.0290
     93 H          23.0408   -1.1304    0.0000 H       1  UNL1        0.0290
     94 H           3.2056    3.8058    0.0000 H       1  UNL1        0.0265
     95 H           3.9853    3.6401    0.0000 H       1  UNL1        0.0265
     96 H          24.1639   -3.0370    0.0000 H       1  UNL1        0.0593
     97 H          25.3513   -2.1591    0.0000 H       1  UNL1        0.0293
     98 H          24.6231   -1.8349    0.0000 H       1  UNL1        0.0293
     99 H           3.4396    5.2384    0.0000 H       1  UNL1        0.0263
    100 H           2.6600    5.4041    0.0000 H       1  UNL1        0.0263
    101 H          24.8245   -3.5117    0.0000 H       1  UNL1        0.0316
    102 H          25.5527   -3.8359    0.0000 H       1  UNL1        0.0316
    103 H           1.8084    5.1373    0.0000 H       1  UNL1        0.0230
    104 H           1.4103    4.3561    0.0000 H       1  UNL1        0.0230
    105 H           2.1916    3.9580    0.0000 H       1  UNL1        0.0230
    106 H          23.7572   -3.9506    0.0000 H       1  UNL1        0.2098
    107 H          26.6241   -1.7030    0.0000 H       1  UNL1        0.0613
    108 H          28.4333   -2.6995    0.0000 H       1  UNL1        0.0777
    109 H          29.0125   -2.2689    0.0000 H       1  UNL1        0.0268
    110 H          29.0584   -1.3933    0.0000 H       1  UNL1        0.0268
    111 H          28.1828   -1.3474    0.0000 H       1  UNL1        0.0268
@<TRIPOS>BOND
     1     1     9    1
     2     1    13    1
     3     2    10    1
     4     2    14    1
     5     3    17    1
     6     3    68    1
     7     4    18    1
     8     4    69    1
     9     5    25    1
    10     5    87    1
    11     6    36    1
    12     6   106    1
    13     7    43    1
    14     7    44    1
    15     8    44    2
    16     9    10    1
    17     9    11    1
    18     9    46    1
    19    10    12    1
    20    10    47    1
    21    11    15    1
    22    11    48    1
    23    11    49    1
    24    12    16    1
    25    12    50    1
    26    12    51    1
    27    13    15    1
    28    13    17    1
    29    13    52    1
    30    14    16    1
    31    14    18    1
    32    14    53    1
    33    15    54    1
    34    15    55    1
    35    16    56    1
    36    16    57    1
    37    17    19    1
    38    17    58    1
    39    18    20    1
    40    18    59    1
    41    19    21    1
    42    19    60    1
    43    19    61    1
    44    20    22    1
    45    20    62    1
    46    20    63    1
    47    21    23    1
    48    21    64    1
    49    21    65    1
    50    22    24    1
    51    22    66    1
    52    22    67    1
    53    23    25    1
    54    23    70    1
    55    23    71    1
    56    24    26    1
    57    24    72    1
    58    24    73    1
    59    25    27    1
    60    25    74    1
    61    26    28    1
    62    26    75    1
    63    26    76    1
    64    27    30    1
    65    27    79    1
    66    27    80    1
    67    28    29    1
    68    28    77    1
    69    28    78    1
    70    29    31    1
    71    29    81    1
    72    29    82    1
    73    30    32    1
    74    30    83    1
    75    30    84    1
    76    31    33    1
    77    31    85    1
    78    31    86    1
    79    32    35    1
    80    32    88    1
    81    32    89    1
    82    33    34    1
    83    33    90    1
    84    33    91    1
    85    34    36    1
    86    34    92    1
    87    34    93    1
    88    35    38    1
    89    35    94    1
    90    35    95    1
    91    36    37    1
    92    36    96    1
    93    37    39    1
    94    37    97    1
    95    37    98    1
    96    38    40    1
    97    38    99    1
    98    38   100    1
    99    39    41    1
   100    39   101    1
   101    39   102    1
   102    40   103    1
   103    40   104    1
   104    40   105    1
   105    41    42    2
   106    41    44    1
   107    42    43    1
   108    42   107    1
   109    43    45    1
   110    43   108    1
   111    45   109    1
   112    45   110    1
   113    45   111    1
