@<TRIPOS>MOLECULE
IMPHY008976
 66 74 0 0 0
SMALL
GASTEIGER
****
Created with ChemWriter - http://chemwriter.com
@<TRIPOS>ATOM
      1 C           4.5548    1.8848    0.0000 C.3     1  UNL1        0.1108
      2 C           5.2697    2.2748    0.0000 C.3     1  UNL1        0.0336
      3 C           4.5548    1.0562    0.0000 C.3     1  UNL1        0.0292
      4 O           5.3564    1.6681    0.0000 O.3     1  UNL1       -0.3544
      5 C           3.8400    2.2910    0.0000 C.2     1  UNL1       -0.0044
      6 C           5.9792    1.8740    0.0000 C.3     1  UNL1        0.0580
      7 C           5.2697    3.1088    0.0000 C.3     1  UNL1        0.0028
      8 C           3.8400    0.6445    0.0000 C.3     1  UNL1        0.0062
      9 C           5.2697    0.6337    0.0000 C.3     1  UNL1        0.0355
     10 C           5.0368    0.3901    0.0000 C.3     1  UNL1        0.0028
     11 C           6.7700    1.6681    0.0000 C.3     1  UNL1        0.1448
     12 C           3.1250    1.8848    0.0000 C.2     1  UNL1       -0.0287
     13 C           5.9792    1.0398    0.0000 C.3     1  UNL1        0.1544
     14 C           6.6941    2.2910    0.0000 C.3     1  UNL1        0.0050
     15 C           5.9792    3.5150    0.0000 C.3     1  UNL1        0.0001
     16 C           3.1250    1.0670    0.0000 C.3     1  UNL1        0.0218
     17 C           3.8400   -0.1516    0.0000 C.3     1  UNL1        0.0004
     18 C           4.5548    0.1733    0.0000 C.3     1  UNL1        0.0004
     19 O           6.7158    0.6175    0.0000 O.3     1  UNL1       -0.2231
     20 C           6.6941    3.1088    0.0000 C.3     1  UNL1        0.0002
     21 C           6.4667    4.1919    0.0000 C.3     1  UNL1        0.0000
     22 C           5.4863    4.1919    0.0000 C.3     1  UNL1        0.0000
     23 C           2.4101    0.6553    0.0000 C.3     1  UNL1        0.0040
     24 C           3.1250   -0.5740    0.0000 C.3     1  UNL1        0.0002
     25 C           2.4101   -0.1678    0.0000 C.3     1  UNL1        0.0050
     26 C           1.6951    1.0670    0.0000 C.3     1  UNL1        0.0028
     27 C           2.4101    1.4840    0.0000 C.3     1  UNL1        0.0003
     28 C           1.6951   -0.5740    0.0000 C.3     1  UNL1        0.0557
     29 C           0.9803    0.6445    0.0000 C.3     1  UNL1        0.0297
     30 C           0.9803   -0.1516    0.0000 C.3     1  UNL1        0.1202
     31 C           1.2131   -1.2131    0.0000 C.3     1  UNL1        0.1843
     32 C           2.2422   -1.1861    0.0000 C.3     1  UNL1        0.0050
     33 O           0.2707   -0.4333    0.0000 O.3     1  UNL1       -0.3310
     34 O           0.6228   -1.1969    0.0000 O.3     1  UNL1       -0.2203
     35 C          -0.4388   -0.7365    0.0000 C.3     1  UNL1        0.2694
     36 O          -1.1699   -0.3195    0.0000 O.3     1  UNL1       -0.3257
     37 C          -0.4388   -1.5814    0.0000 C.3     1  UNL1        0.2406
     38 C          -1.8848   -0.7365    0.0000 C.3     1  UNL1        0.1802
     39 C          -1.1699   -2.0039    0.0000 C.3     1  UNL1        0.2198
     40 O          -0.0758   -2.0147    0.0000 O.3     1  UNL1       -0.2149
     41 C          -2.1014   -0.0975    0.0000 C.3     1  UNL1        0.1770
     42 C          -1.8848   -1.5814    0.0000 C.3     1  UNL1        0.2143
     43 O          -1.1969   -2.7025    0.0000 O.3     1  UNL1       -0.2174
     44 O          -2.7784    0.0109    0.0000 O.3     1  UNL1       -0.3259
     45 O          -2.1014   -2.3342    0.0000 O.3     1  UNL1       -0.2176
     46 C          -2.9518   -0.7636    0.0000 C.3     1  UNL1        0.2695
     47 O          -3.6829   -0.3466    0.0000 O.3     1  UNL1       -0.3257
     48 C          -2.9518   -1.6031    0.0000 C.3     1  UNL1        0.2404
     49 C          -4.3979   -0.7636    0.0000 C.3     1  UNL1        0.1803
     50 C          -3.6829   -2.0256    0.0000 C.3     1  UNL1        0.2167
     51 O          -2.5996   -2.2313    0.0000 O.3     1  UNL1       -0.2149
     52 C          -4.3979   -1.6031    0.0000 C.3     1  UNL1        0.1804
     53 C          -4.7011    0.0379    0.0000 C.3     1  UNL1        0.2141
     54 O          -3.6666   -2.8054    0.0000 O.3     1  UNL1       -0.2175
     55 O          -4.4195   -2.4859    0.0000 O.3     1  UNL1       -0.3257
     56 O          -5.4051    0.2113    0.0000 O.3     1  UNL1       -0.2176
     57 C          -5.0206   -2.2693    0.0000 C.3     1  UNL1        0.2695
     58 C          -5.0206   -3.1087    0.0000 C.3     1  UNL1        0.2406
     59 O          -5.7517   -1.8522    0.0000 O.3     1  UNL1       -0.3284
     60 C          -5.7517   -3.5312    0.0000 C.3     1  UNL1        0.2197
     61 O          -4.5766   -3.6612    0.0000 O.3     1  UNL1       -0.2149
     62 C          -6.4667   -2.2693    0.0000 C.3     1  UNL1        0.1508
     63 C          -6.4667   -3.1087    0.0000 C.3     1  UNL1        0.2118
     64 O          -5.7626   -4.1919    0.0000 O.3     1  UNL1       -0.2174
     65 C          -6.7700   -1.6573    0.0000 C.3     1  UNL1        0.0350
     66 O          -6.7700   -3.7641    0.0000 O.3     1  UNL1       -0.2177
@<TRIPOS>BOND
     1     1     2    1
     2     1     3    1
     3     1     4    1
     4     1     5    1
     5     2     6    1
     6     2     7    1
     7     3     8    1
     8     3     9    1
     9     3    10    1
    10     4    11    1
    11     5    12    2
    12     6    13    1
    13     6    14    1
    14     6    11    1
    15     7    15    1
    16     8    16    1
    17     8    17    1
    18     8    18    1
    19     9    13    1
    20    12    16    1
    21    13    19    1
    22    14    20    1
    23    15    21    1
    24    15    22    1
    25    15    20    1
    26    16    23    1
    27    17    24    1
    28    23    25    1
    29    23    26    1
    30    23    27    1
    31    24    25    1
    32    25    28    1
    33    26    29    1
    34    28    30    1
    35    28    31    1
    36    28    32    1
    37    29    30    1
    38    30    33    1
    39    31    34    1
    40    35    33    1
    41    35    36    1
    42    35    37    1
    43    36    38    1
    44    37    39    1
    45    37    40    1
    46    38    41    1
    47    38    42    1
    48    39    43    1
    49    39    42    1
    50    41    44    1
    51    42    45    1
    52    46    44    1
    53    46    47    1
    54    46    48    1
    55    47    49    1
    56    48    50    1
    57    48    51    1
    58    49    52    1
    59    49    53    1
    60    50    54    1
    61    50    52    1
    62    52    55    1
    63    53    56    1
    64    57    55    1
    65    57    58    1
    66    57    59    1
    67    58    60    1
    68    58    61    1
    69    59    62    1
    70    60    63    1
    71    60    64    1
    72    62    65    1
    73    62    63    1
    74    63    66    1
