@<TRIPOS>MOLECULE
IMPHY009996
 29 30 0 0 0
SMALL
GASTEIGER

@<TRIPOS>ATOM
      1 O           2.4750   -0.6902    0.0000 O.3     1  UNL1       -0.3915
      2 C           6.8636   -0.0329    0.0000 C.3     1  UNL1       -0.0288
      3 C           5.4647   -0.0417    0.0000 C.3     1  UNL1       -0.0304
      4 C           5.7235    0.9242    0.0000 C.3     1  UNL1       -0.0330
      5 C           4.9869    1.9068    0.0000 C.3     1  UNL1       -0.0460
      6 C           4.2437   -0.9074    0.0000 C.3     1  UNL1       -0.0145
      7 C           3.6903    0.6130    0.0000 C.3     1  UNL1       -0.0233
      8 C           3.4146   -0.3482    0.0000 C.3     1  UNL1        0.0583
      9 C           7.3636   -0.8990    0.0000 C.3     1  UNL1       -0.0593
     10 C           7.7297    0.4671    0.0000 C.3     1  UNL1       -0.0593
     11 C           4.2786   -1.9068    0.0000 C.3     1  UNL1       -0.0598
     12 H           5.7252   -0.8508    0.0000 H       1  UNL1        0.0310
     13 H           6.3409    1.5084    0.0000 H       1  UNL1        0.0307
     14 H           5.3047    2.4392    0.0000 H       1  UNL1        0.0271
     15 H           4.3738    1.9988    0.0000 H       1  UNL1        0.0271
     16 H           3.5002   -1.3195    0.0000 H       1  UNL1        0.0326
     17 H           3.6852    1.2330    0.0000 H       1  UNL1        0.0293
     18 H           3.0760    0.6968    0.0000 H       1  UNL1        0.0293
     19 H           2.7930    0.2315    0.0000 H       1  UNL1        0.0596
     20 H           8.0397   -0.0699    0.0000 H       1  UNL1        0.0235
     21 H           6.8267   -1.2090    0.0000 H       1  UNL1        0.0235
     22 H           7.6736   -1.4359    0.0000 H       1  UNL1        0.0235
     23 H           7.9006   -0.5890    0.0000 H       1  UNL1        0.0235
     24 H           8.2666    0.7771    0.0000 H       1  UNL1        0.0235
     25 H           7.4197    1.0040    0.0000 H       1  UNL1        0.0235
     26 H           3.6590   -1.9284    0.0000 H       1  UNL1        0.0233
     27 H           4.3002   -2.5264    0.0000 H       1  UNL1        0.0233
     28 H           4.8982   -1.8852    0.0000 H       1  UNL1        0.0233
     29 H           2.0000   -0.2917    0.0000 H       1  UNL1        0.2098
@<TRIPOS>BOND
     1     1     8    1
     2     1    29    1
     3     2     3    1
     4     2     4    1
     5     2     9    1
     6     2    10    1
     7     3     5    1
     8     3     6    1
     9     3    12    1
    10     4     5    1
    11     4     7    1
    12     4    13    1
    13     5    14    1
    14     5    15    1
    15     6     8    1
    16     6    11    1
    17     6    16    1
    18     7     8    1
    19     7    17    1
    20     7    18    1
    21     8    19    1
    22     9    21    1
    23     9    22    1
    24     9    23    1
    25    10    20    1
    26    10    24    1
    27    10    25    1
    28    11    26    1
    29    11    27    1
    30    11    28    1
