@<TRIPOS>MOLECULE
IMPHY005482
 37 40 0 0 0
SMALL
GASTEIGER

@<TRIPOS>ATOM
      1 O           3.9061   -0.9927    0.0000 O.3     1  UNL1       -0.4814
      2 O           7.4260   -0.9927    0.0000 O.2     1  UNL1       -0.4507
      3 O           5.6660    2.0419    0.0000 O.3     1  UNL1       -0.5052
      4 O           7.4144    2.0765    0.0000 O.2     1  UNL1       -0.2863
      5 O           9.2517   -2.0357    0.0000 O.3     1  UNL1       -0.5033
      6 C           3.0000   -0.4789    0.0000 C.3     1  UNL1        0.1235
      7 C           4.8000    0.5419    0.0000 C.ar    1  UNL1        0.0588
      8 C           4.8000   -0.4581    0.0000 C.ar    1  UNL1        0.1359
      9 C           3.0000    0.5627    0.0000 C.2     1  UNL1       -0.0408
     10 C           6.5320    0.5419    0.0000 C.ar    1  UNL1        0.1067
     11 C           5.6660    1.0419    0.0000 C.ar    1  UNL1        0.1418
     12 C           6.5320   -0.4581    0.0000 C.ar    1  UNL1        0.1465
     13 C           3.9061    1.0766    0.0000 C.2     1  UNL1       -0.0478
     14 C           2.0000   -0.4827    0.0000 C.3     1  UNL1       -0.0215
     15 C           2.5033   -1.3468    0.0000 C.3     1  UNL1       -0.0215
     16 C           5.6660   -0.9581    0.0000 C.ar    1  UNL1        0.0240
     17 C           7.4260    1.0766    0.0000 C.ar    1  UNL1        0.2038
     18 C           8.3321    0.5627    0.0000 C.ar    1  UNL1        0.0683
     19 C           8.3321   -0.4789    0.0000 C.ar    1  UNL1        0.1804
     20 C           9.2632    1.1197    0.0000 C.ar    1  UNL1       -0.0471
     21 C           9.2632   -1.0358    0.0000 C.ar    1  UNL1        0.1598
     22 C          10.2070    0.5844    0.0000 C.ar    1  UNL1       -0.0574
     23 C          10.2070   -0.5006    0.0000 C.ar    1  UNL1       -0.0165
     24 H           2.4643    0.8748    0.0000 H       1  UNL1        0.0611
     25 H           3.9132    1.6966    0.0000 H       1  UNL1        0.0624
     26 H           1.9652   -1.0389    0.0000 H       1  UNL1        0.0271
     27 H           2.1954   -1.8850    0.0000 H       1  UNL1        0.0271
     28 H           3.0415   -1.6548    0.0000 H       1  UNL1        0.0271
     29 H           1.9976    0.1373    0.0000 H       1  UNL1        0.0271
     30 H           1.3800   -0.4851    0.0000 H       1  UNL1        0.0271
     31 H           2.0024   -1.1027    0.0000 H       1  UNL1        0.0271
     32 H           5.6660   -1.5781    0.0000 H       1  UNL1        0.0691
     33 H           9.2560    1.7396    0.0000 H       1  UNL1        0.0626
     34 H           5.1291    2.3519    0.0000 H       1  UNL1        0.2922
     35 H          10.7427    0.8965    0.0000 H       1  UNL1        0.0619
     36 H          10.7427   -0.8126    0.0000 H       1  UNL1        0.0655
     37 H           9.7850   -2.3519    0.0000 H       1  UNL1        0.2923
@<TRIPOS>BOND
     1     1     6    1
     2     1     8    1
     3     2    12   ar
     4     2    19   ar
     5     3    11    1
     6     3    34    1
     7     4    17    2
     8     5    21    1
     9     5    37    1
    10     6     9    1
    11     6    14    1
    12     6    15    1
    13     7     8   ar
    14     7    11   ar
    15     7    13    1
    16     8    16   ar
    17     9    13    2
    18     9    24    1
    19    10    11   ar
    20    10    12   ar
    21    10    17   ar
    22    12    16   ar
    23    13    25    1
    24    14    29    1
    25    14    30    1
    26    14    31    1
    27    15    26    1
    28    15    27    1
    29    15    28    1
    30    16    32    1
    31    17    18   ar
    32    18    19   ar
    33    18    20   ar
    34    19    21   ar
    35    20    22   ar
    36    20    33    1
    37    21    23   ar
    38    22    23   ar
    39    22    35    1
    40    23    36    1
