@<TRIPOS>MOLECULE
IMPHY010737
 28 30 0 0 0
SMALL
GASTEIGER

@<TRIPOS>ATOM
      1 C           5.9505   -2.0049    0.0000 C.ar    1  UNL1        0.1475
      2 C           5.9505   -3.3287    0.0000 C.ar    1  UNL1        0.1021
      3 C           4.7938   -3.9970    0.0000 C.ar    1  UNL1        0.1473
      4 C           3.6371   -3.3287    0.0000 C.ar    1  UNL1        0.0680
      5 C           3.6371   -2.0049    0.0000 C.ar    1  UNL1        0.1445
      6 C           4.7938   -1.3366    0.0000 C.ar    1  UNL1        0.0741
      7 C           8.2510   -3.3287    0.0000 C.2     1  UNL1        0.0791
      8 C           7.0943   -3.9970    0.0000 C.2     1  UNL1        0.1477
      9 C           9.4077   -3.9970    0.0000 C.2     1  UNL1        0.1987
     10 C          10.5644   -3.3287    0.0000 C.ar    1  UNL1        0.0391
     11 O           9.4077   -5.3336    0.0000 O.2     1  UNL1       -0.2865
     12 C          10.5644   -2.0049    0.0000 C.ar    1  UNL1        0.0032
     13 C          11.7082   -1.3495    0.0000 C.ar    1  UNL1        0.0001
     14 C          12.8520   -2.0049    0.0000 C.ar    1  UNL1        0.0000
     15 C          12.8520   -3.3287    0.0000 C.ar    1  UNL1        0.0001
     16 C          11.7082   -3.9970    0.0000 C.ar    1  UNL1        0.0032
     17 C           2.4804   -3.9970    0.0000 C.2     1  UNL1        0.0049
     18 O           2.4804   -1.3366    0.0000 O.3     1  UNL1       -0.4783
     19 C           1.3366   -3.3287    0.0000 C.2     1  UNL1        0.0130
     20 C           1.3366   -2.0049    0.0000 C.3     1  UNL1        0.1517
     21 C           0.6683   -0.8482    0.0000 C.3     1  UNL1        0.0483
     22 C           0.0000   -2.0049    0.0000 C.3     1  UNL1        0.0483
     23 O           7.0943   -1.3366    0.0000 O.3     1  UNL1       -0.4711
     24 C           7.0943    0.0000    0.0000 C.3     1  UNL1        0.2525
     25 O           7.0943   -5.3336    0.0000 O.2     1  UNL1       -0.4711
     26 C           5.9505   -6.0019    0.0000 C.3     1  UNL1        0.2525
     27 O           4.7938   -5.3336    0.0000 O.3     1  UNL1       -0.4711
     28 C           3.6371   -5.9891    0.0000 C.3     1  UNL1        0.2525
@<TRIPOS>BOND
     1     1     2   ar
     2     1     6   ar
     3     1    23    1
     4     2     3   ar
     5     2     8    1
     6     3     4   ar
     7     3    27    1
     8     4     5   ar
     9     4    17    1
    10     5     6   ar
    11     5    18    1
    12     7     8    2
    13     7     9    1
    14     8    25    1
    15     9    10    1
    16     9    11    2
    17    10    12   ar
    18    10    16   ar
    19    12    13   ar
    20    13    14   ar
    21    14    15   ar
    22    15    16   ar
    23    17    19    2
    24    18    20    1
    25    19    20    1
    26    20    21    1
    27    20    22    1
    28    23    24    1
    29    25    26    1
    30    27    28    1
