@<TRIPOS>MOLECULE
IMPHY006483
 39 42 0 0 0
SMALL
GASTEIGER

@<TRIPOS>ATOM
      1 O           9.1869   -0.2247    0.0000 O.3     1  UNL1       -0.4815
      2 O           5.5918   -1.1787    0.0000 O.2     1  UNL1       -0.4547
      3 O           7.4269    2.8100    0.0000 O.3     1  UNL1       -0.5060
      4 O           2.6200   -3.1200    0.0000 O.3     1  UNL1       -0.5066
      5 C          10.0930    0.2892    0.0000 C.3     1  UNL1        0.1235
      6 C           8.2930    0.3100    0.0000 C.ar    1  UNL1        0.1330
      7 C           8.2930    1.3100    0.0000 C.ar    1  UNL1        0.0579
      8 C          10.0930    1.3308    0.0000 C.2     1  UNL1       -0.0408
      9 C          11.0929    0.2853    0.0000 C.3     1  UNL1       -0.0215
     10 C          10.5896   -0.5788    0.0000 C.3     1  UNL1       -0.0215
     11 C           9.1869    1.8446    0.0000 C.2     1  UNL1       -0.0478
     12 C           6.5609    0.3100    0.0000 C.ar    1  UNL1        0.0242
     13 C           7.4269   -0.1900    0.0000 C.ar    1  UNL1       -0.0084
     14 C           7.4269    1.8100    0.0000 C.ar    1  UNL1        0.1281
     15 C           5.6949   -0.1900    0.0000 C.ar    1  UNL1        0.1365
     16 C           6.5609    1.3100    0.0000 C.ar    1  UNL1       -0.0087
     17 C           4.1200   -0.5219    0.0000 C.ar    1  UNL1        0.0210
     18 C           4.7871    0.2151    0.0000 C.ar    1  UNL1       -0.0081
     19 C           4.6200   -1.3879    0.0000 C.ar    1  UNL1        0.1391
     20 C           3.1200   -0.5219    0.0000 C.ar    1  UNL1       -0.0475
     21 C           4.1200   -2.2540    0.0000 C.ar    1  UNL1        0.0227
     22 C           3.1200   -2.2540    0.0000 C.ar    1  UNL1        0.1204
     23 C           2.6200   -1.3879    0.0000 C.ar    1  UNL1       -0.0194
     24 H          10.6287    1.6429    0.0000 H       1  UNL1        0.0611
     25 H          11.0906   -0.3347    0.0000 H       1  UNL1        0.0271
     26 H          11.7129    0.2829    0.0000 H       1  UNL1        0.0271
     27 H          10.0515   -0.8867    0.0000 H       1  UNL1        0.0271
     28 H          10.8975   -1.1169    0.0000 H       1  UNL1        0.0271
     29 H          11.1277   -0.2708    0.0000 H       1  UNL1        0.0271
     30 H          11.0953    0.9053    0.0000 H       1  UNL1        0.0271
     31 H           9.1797    2.4646    0.0000 H       1  UNL1        0.0624
     32 H           7.4269   -0.8100    0.0000 H       1  UNL1        0.0661
     33 H           6.0240    1.6200    0.0000 H       1  UNL1        0.0661
     34 H           4.6592    0.8218    0.0000 H       1  UNL1        0.0661
     35 H           2.8100    0.0150    0.0000 H       1  UNL1        0.0626
     36 H           4.4300   -2.7909    0.0000 H       1  UNL1        0.0691
     37 H           2.0000   -1.3879    0.0000 H       1  UNL1        0.0654
     38 H           6.8900    3.1200    0.0000 H       1  UNL1        0.2922
     39 H           2.0000   -3.1200    0.0000 H       1  UNL1        0.2921
@<TRIPOS>BOND
     1     1     5    1
     2     1     6    1
     3     2    15   ar
     4     2    19   ar
     5     3    14    1
     6     3    38    1
     7     4    22    1
     8     4    39    1
     9     5     8    1
    10     5     9    1
    11     5    10    1
    12     6     7   ar
    13     6    13   ar
    14     7    11    1
    15     7    14   ar
    16     8    11    2
    17     8    24    1
    18     9    25    1
    19     9    26    1
    20     9    30    1
    21    10    27    1
    22    10    28    1
    23    10    29    1
    24    11    31    1
    25    12    13   ar
    26    12    15    1
    27    12    16   ar
    28    13    32    1
    29    14    16   ar
    30    15    18   ar
    31    16    33    1
    32    17    18   ar
    33    17    19   ar
    34    17    20   ar
    35    18    34    1
    36    19    21   ar
    37    20    23   ar
    38    20    35    1
    39    21    22   ar
    40    21    36    1
    41    22    23   ar
    42    23    37    1
