@<TRIPOS>MOLECULE
IMPHY006780
 80 85 0 0 0
SMALL
GASTEIGER

@<TRIPOS>ATOM
      1 O           4.2396    3.1051    0.0000 O.3     1  UNL1       -0.3477
      2 O           4.6396    4.7051    0.0000 O.3     1  UNL1       -0.3640
      3 O           2.8776   -4.7009    0.0000 O.3     1  UNL1       -0.4802
      4 O           2.0000   -3.2076    0.0000 O.2     1  UNL1       -0.2504
      5 C           4.6396    1.7051    0.0000 C.3     1  UNL1        0.0015
      6 C           3.7577    0.1358    0.0000 C.3     1  UNL1       -0.0193
      7 C           4.6557    0.6636    0.0000 C.3     1  UNL1       -0.0234
      8 C           3.7736    2.2051    0.0000 C.3     1  UNL1       -0.0230
      9 C           3.7493   -0.9492    0.0000 C.3     1  UNL1       -0.0051
     10 C           3.7736    3.2051    0.0000 C.3     1  UNL1        0.0223
     11 C           2.8556    0.6566    0.0000 C.3     1  UNL1       -0.0463
     12 C           2.8636    1.6982    0.0000 C.3     1  UNL1       -0.0484
     13 C           5.5057    2.2051    0.0000 C.3     1  UNL1       -0.0398
     14 C           4.6396    3.7051    0.0000 C.3     1  UNL1        0.1726
     15 C           4.2396    2.3051    0.0000 C.3     1  UNL1        0.0571
     16 C           4.6889   -1.4917    0.0000 C.2     1  UNL1       -0.0626
     17 C           5.6076    0.1429    0.0000 C.3     1  UNL1       -0.0305
     18 C           5.5057    3.2051    0.0000 C.3     1  UNL1        0.0023
     19 C           4.7064   -2.6217    0.0000 C.3     1  UNL1       -0.0008
     20 C           2.7620   -1.4991    0.0000 C.3     1  UNL1       -0.0424
     21 C           3.7320   -3.1943    0.0000 C.3     1  UNL1        0.0743
     22 C           2.7742   -0.0454    0.0000 C.3     1  UNL1       -0.0585
     23 C           5.6244   -0.9419    0.0000 C.2     1  UNL1       -0.0836
     24 C           2.7532   -2.6292    0.0000 C.3     1  UNL1       -0.0359
     25 C           2.7645   -0.7755    0.0000 C.3     1  UNL1       -0.0553
     26 C           5.7392   -3.1866    0.0000 C.3     1  UNL1       -0.0337
     27 C           3.2736    4.0711    0.0000 C.3     1  UNL1       -0.0546
     28 C           2.7736    3.2051    0.0000 C.3     1  UNL1       -0.0546
     29 C           3.7229   -4.3715    0.0000 C.3     1  UNL1       -0.0364
     30 C           5.7574   -4.3636    0.0000 C.3     1  UNL1       -0.0407
     31 C           4.7424   -4.9601    0.0000 C.3     1  UNL1       -0.0492
     32 C           2.8698   -3.7010    0.0000 C.2     1  UNL1        0.3115
     33 C           6.5954   -2.6700    0.0000 C.3     1  UNL1       -0.0616
     34 C           6.6291   -4.8536    0.0000 C.3     1  UNL1       -0.0622
     35 H           5.3835    1.1027    0.0000 H       1  UNL1        0.0315
     36 H           3.0375    2.6301    0.0000 H       1  UNL1        0.0314
     37 H           2.2456    0.7674    0.0000 H       1  UNL1        0.0271
     38 H           2.6420    0.0746    0.0000 H       1  UNL1        0.0271
     39 H           2.6591    2.2835    0.0000 H       1  UNL1        0.0268
     40 H           2.2520    1.5968    0.0000 H       1  UNL1        0.0268
     41 H           5.7177    1.6224    0.0000 H       1  UNL1        0.0273
     42 H           6.1163    2.3127    0.0000 H       1  UNL1        0.0273
     43 H           3.6526    2.5046    0.0000 H       1  UNL1        0.0566
     44 H           4.8330    2.4847    0.0000 H       1  UNL1        0.0566
     45 H           6.2200    0.0463    0.0000 H       1  UNL1        0.0310
     46 H           5.8077    0.7298    0.0000 H       1  UNL1        0.0310
     47 H           6.1163    3.0974    0.0000 H       1  UNL1        0.0317
     48 H           5.7177    3.7877    0.0000 H       1  UNL1        0.0317
     49 H           5.4342   -2.1826    0.0000 H       1  UNL1        0.0359
     50 H           2.5574   -0.9138    0.0000 H       1  UNL1        0.0274
     51 H           2.1503   -1.6005    0.0000 H       1  UNL1        0.0274
     52 H           2.6619    0.5643    0.0000 H       1  UNL1        0.0235
     53 H           2.1645   -0.1577    0.0000 H       1  UNL1        0.0235
     54 H           2.8866   -0.6551    0.0000 H       1  UNL1        0.0235
     55 H           6.1649   -1.2457    0.0000 H       1  UNL1        0.0572
     56 H           2.1432   -2.5184    0.0000 H       1  UNL1        0.0276
     57 H           2.5397   -3.2113    0.0000 H       1  UNL1        0.0276
     58 H           2.8722   -0.1649    0.0000 H       1  UNL1        0.0238
     59 H           2.1539   -0.6679    0.0000 H       1  UNL1        0.0238
     60 H           2.6568   -1.3861    0.0000 H       1  UNL1        0.0238
     61 H           6.2814   -3.4872    0.0000 H       1  UNL1        0.0307
     62 H           2.7736    3.8251    0.0000 H       1  UNL1        0.0237
     63 H           2.1536    3.2051    0.0000 H       1  UNL1        0.0237
     64 H           2.7736    2.5851    0.0000 H       1  UNL1        0.0237
     65 H           3.8106    4.3811    0.0000 H       1  UNL1        0.0237
     66 H           2.9636    4.6080    0.0000 H       1  UNL1        0.0237
     67 H           2.7367    3.7611    0.0000 H       1  UNL1        0.0237
     68 H           3.1129   -4.2607    0.0000 H       1  UNL1        0.0276
     69 H           3.5094   -4.9535    0.0000 H       1  UNL1        0.0276
     70 H           5.7633   -4.9836    0.0000 H       1  UNL1        0.0301
     71 H           4.3451   -5.4361    0.0000 H       1  UNL1        0.0268
     72 H           5.1434   -5.4330    0.0000 H       1  UNL1        0.0268
     73 H           5.1766    5.0151    0.0000 H       1  UNL1        0.2128
     74 H           6.9157   -3.2008    0.0000 H       1  UNL1        0.0233
     75 H           7.1263   -2.3497    0.0000 H       1  UNL1        0.0233
     76 H           6.2751   -2.1391    0.0000 H       1  UNL1        0.0233
     77 H           6.3253   -5.3941    0.0000 H       1  UNL1        0.0233
     78 H           7.1696   -5.1574    0.0000 H       1  UNL1        0.0233
     79 H           6.9329   -4.3131    0.0000 H       1  UNL1        0.0233
     80 H           2.3430   -5.0151    0.0000 H       1  UNL1        0.2951
@<TRIPOS>BOND
     1     1    14    1
     2     1    15    1
     3    14     2    1
     4     2    73    1
     5     3    32    1
     6     3    80    1
     7     4    32    2
     8     5     7    1
     9     5     8    1
    10     5    13    1
    11     5    15    1
    12     6     7    1
    13     6     9    1
    14     6    11    1
    15     6    22    1
    16     7    17    1
    17     7    35    1
    18     8    10    1
    19     8    12    1
    20     8    36    1
    21     9    16    1
    22     9    20    1
    23     9    25    1
    24    10    14    1
    25    10    27    1
    26    10    28    1
    27    11    12    1
    28    11    37    1
    29    11    38    1
    30    12    39    1
    31    12    40    1
    32    13    18    1
    33    13    41    1
    34    13    42    1
    35    14    18    1
    36    15    43    1
    37    15    44    1
    38    16    19    1
    39    16    23    2
    40    17    23    1
    41    17    45    1
    42    17    46    1
    43    18    47    1
    44    18    48    1
    45    19    21    1
    46    19    26    1
    47    19    49    1
    48    20    24    1
    49    20    50    1
    50    20    51    1
    51    21    24    1
    52    21    29    1
    53    21    32    1
    54    22    52    1
    55    22    53    1
    56    22    54    1
    57    23    55    1
    58    24    56    1
    59    24    57    1
    60    25    58    1
    61    25    59    1
    62    25    60    1
    63    26    30    1
    64    26    33    1
    65    26    61    1
    66    27    65    1
    67    27    66    1
    68    27    67    1
    69    28    62    1
    70    28    63    1
    71    28    64    1
    72    29    31    1
    73    29    68    1
    74    29    69    1
    75    30    31    1
    76    30    34    1
    77    30    70    1
    78    31    71    1
    79    31    72    1
    80    33    74    1
    81    33    75    1
    82    33    76    1
    83    34    77    1
    84    34    78    1
    85    34    79    1
