@<TRIPOS>MOLECULE
IMPHY013717
 79 85 0 0 0
SMALL
GASTEIGER

@<TRIPOS>ATOM
      1 O           8.2365   -2.3401    0.0000 O.3     1  UNL1       -0.4846
      2 O           9.5315   -0.3845    0.0000 O.3     1  UNL1       -0.3854
      3 O           4.7756   -1.9432    0.0000 O.3     1  UNL1       -0.4946
      4 O           7.3920    0.4411    0.0000 O.3     1  UNL1       -0.5056
      5 O           6.5566   -5.5963    0.0000 O.3     1  UNL1       -0.5059
      6 O           4.8082   -5.5617    0.0000 O.2     1  UNL1       -0.2864
      7 O           3.0597   -1.5271    0.0000 O.3     1  UNL1       -0.5047
      8 O           6.9910    2.1432    0.0000 O.2     1  UNL1       -0.2864
      9 O           2.6792    3.0054    0.0000 O.3     1  UNL1       -0.4895
     10 O           3.2930    4.9596    0.0000 O.3     1  UNL1       -0.4914
     11 N           4.8082   -2.5617    0.0000 N.ar    1  UNL1       -0.3395
     12 N           4.0579    1.5132    0.0000 N.ar    1  UNL1       -0.3508
     13 C           6.7782   -1.5131    0.0000 C.3     1  UNL1        0.0612
     14 C           7.8072   -1.3978    0.0000 C.3     1  UNL1        0.1393
     15 C           8.6694   -0.8912    0.0000 C.3     1  UNL1        0.0980
     16 C           6.5681   -2.5270    0.0000 C.ar    1  UNL1        0.0299
     17 C           7.4742   -3.0409    0.0000 C.ar    1  UNL1        0.1304
     18 C           6.1047   -0.7740    0.0000 C.ar    1  UNL1        0.0476
     19 C           5.6742   -3.0617    0.0000 C.ar    1  UNL1        0.0640
     20 C           9.1760   -1.7533    0.0000 C.3     1  UNL1       -0.0328
     21 C           8.1627   -0.0290    0.0000 C.3     1  UNL1       -0.0328
     22 C           5.6742   -4.0617    0.0000 C.ar    1  UNL1        0.0876
     23 C           7.4742   -4.0825    0.0000 C.ar    1  UNL1        0.0227
     24 C           6.4168    0.2198    0.0000 C.ar    1  UNL1        0.1370
     25 C           5.0862   -0.9927    0.0000 C.ar    1  UNL1        0.1294
     26 C           6.5681   -4.5964    0.0000 C.ar    1  UNL1        0.1331
     27 C           3.9421   -3.0617    0.0000 C.ar    1  UNL1        0.0949
     28 C           5.7063    0.9815    0.0000 C.ar    1  UNL1        0.0874
     29 C           4.8082   -4.5617    0.0000 C.ar    1  UNL1        0.2007
     30 C           3.9421   -4.0617    0.0000 C.ar    1  UNL1        0.0495
     31 C           4.7286    0.7715    0.0000 C.ar    1  UNL1        0.0577
     32 C           4.3936   -0.2148    0.0000 C.ar    1  UNL1        0.0046
     33 C           5.6742   -2.0617    0.0000 C.3     1  UNL1        0.0125
     34 C           6.0133    1.9332    0.0000 C.ar    1  UNL1        0.2007
     35 C           3.0482   -2.5270    0.0000 C.ar    1  UNL1        0.1409
     36 C           3.0482   -4.5964    0.0000 C.ar    1  UNL1       -0.0487
     37 C           5.3426    2.6750    0.0000 C.ar    1  UNL1        0.0495
     38 C           4.3649    2.4650    0.0000 C.ar    1  UNL1        0.0965
     39 C           2.1421   -3.0409    0.0000 C.ar    1  UNL1       -0.0181
     40 C           2.1421   -4.0825    0.0000 C.ar    1  UNL1       -0.0575
     41 C           3.7971   -2.1495    0.0000 C.3     1  UNL1        0.0788
     42 C           3.6544    3.2267    0.0000 C.ar    1  UNL1        0.1855
     43 C           5.6776    3.6612    0.0000 C.ar    1  UNL1       -0.0452
     44 C           3.9666    4.2205    0.0000 C.ar    1  UNL1        0.1636
     45 C           4.9850    4.4392    0.0000 C.ar    1  UNL1       -0.0155
     46 C           2.0000    3.7393    0.0000 C.3     1  UNL1        0.0791
     47 C           3.5963    5.9125    0.0000 C.3     1  UNL1        0.0790
     48 H           6.9967   -0.9329    0.0000 H       1  UNL1        0.0439
     49 H           8.3984   -1.5846    0.0000 H       1  UNL1        0.0771
     50 H           8.6415   -2.0674    0.0000 H       1  UNL1        0.0258
     51 H           9.4902   -2.2878    0.0000 H       1  UNL1        0.0258
     52 H           9.7106   -1.4392    0.0000 H       1  UNL1        0.0258
     53 H           8.6973    0.2851    0.0000 H       1  UNL1        0.0258
     54 H           7.8486    0.5055    0.0000 H       1  UNL1        0.0258
     55 H           7.6282   -0.3432    0.0000 H       1  UNL1        0.0258
     56 H           8.0099   -4.3946    0.0000 H       1  UNL1        0.0691
     57 H          10.0708   -0.6904    0.0000 H       1  UNL1        0.2103
     58 H           3.7860   -0.3379    0.0000 H       1  UNL1        0.0675
     59 H           5.9842   -2.5986    0.0000 H       1  UNL1        0.0456
     60 H           6.2111   -1.7517    0.0000 H       1  UNL1        0.0456
     61 H           5.3642   -1.5248    0.0000 H       1  UNL1        0.0456
     62 H           3.4517    1.3831    0.0000 H       1  UNL1        0.1660
     63 H           7.5755    1.0333    0.0000 H       1  UNL1        0.2922
     64 H           3.0553   -5.2163    0.0000 H       1  UNL1        0.0625
     65 H           7.0899   -5.9125    0.0000 H       1  UNL1        0.2922
     66 H           1.6064   -2.7288    0.0000 H       1  UNL1        0.0655
     67 H           1.6064   -4.3946    0.0000 H       1  UNL1        0.0619
     68 H           3.6692   -1.5428    0.0000 H       1  UNL1        0.0660
     69 H           3.1904   -2.2773    0.0000 H       1  UNL1        0.0660
     70 H           3.9249   -2.7561    0.0000 H       1  UNL1        0.0660
     71 H           6.2853    3.7844    0.0000 H       1  UNL1        0.0626
     72 H           2.5264   -1.2109    0.0000 H       1  UNL1        0.2922
     73 H           5.1776    5.0285    0.0000 H       1  UNL1        0.0655
     74 H           2.4550    4.1605    0.0000 H       1  UNL1        0.0660
     75 H           1.5789    4.1944    0.0000 H       1  UNL1        0.0660
     76 H           1.5450    3.3182    0.0000 H       1  UNL1        0.0660
     77 H           4.1871    5.7244    0.0000 H       1  UNL1        0.0660
     78 H           3.7844    6.5033    0.0000 H       1  UNL1        0.0660
     79 H           3.0056    6.1006    0.0000 H       1  UNL1        0.0660
@<TRIPOS>BOND
     1     1    14    1
     2     1    17    1
     3     2    15    1
     4     2    57    1
     5     3    25    1
     6     3    41    1
     7     4    24    1
     8     4    63    1
     9     5    26    1
    10     5    65    1
    11     6    29    2
    12     7    35    1
    13     7    72    1
    14     8    34    2
    15     9    42    1
    16     9    46    1
    17    10    44    1
    18    10    47    1
    19    11    19   ar
    20    11    27   ar
    21    11    33    1
    22    12    31   ar
    23    12    38   ar
    24    12    62    1
    25    13    14    1
    26    13    16    1
    27    13    18    1
    28    13    48    1
    29    14    15    1
    30    14    49    1
    31    15    20    1
    32    15    21    1
    33    16    17   ar
    34    16    19   ar
    35    17    23   ar
    36    18    24   ar
    37    18    25   ar
    38    19    22   ar
    39    20    50    1
    40    20    51    1
    41    20    52    1
    42    21    53    1
    43    21    54    1
    44    21    55    1
    45    22    26   ar
    46    22    29   ar
    47    23    26   ar
    48    23    56    1
    49    24    28   ar
    50    25    32   ar
    51    27    30   ar
    52    27    35   ar
    53    28    31   ar
    54    28    34   ar
    55    29    30   ar
    56    30    36   ar
    57    31    32   ar
    58    32    58    1
    59    33    59    1
    60    33    60    1
    61    33    61    1
    62    34    37   ar
    63    35    39   ar
    64    36    40   ar
    65    36    64    1
    66    37    38   ar
    67    37    43   ar
    68    38    42   ar
    69    39    40   ar
    70    39    66    1
    71    40    67    1
    72    41    68    1
    73    41    69    1
    74    41    70    1
    75    42    44   ar
    76    43    45   ar
    77    43    71    1
    78    44    45   ar
    79    45    73    1
    80    46    74    1
    81    46    75    1
    82    46    76    1
    83    47    77    1
    84    47    78    1
    85    47    79    1
