@<TRIPOS>MOLECULE
IMPHY016717
 38 39 0 0 0
SMALL
GASTEIGER

@<TRIPOS>ATOM
      1 O           3.0003    2.4332    0.0000 O.2     1  UNL1       -0.2960
      2 C           3.0000   -1.5672    0.0000 C.3     1  UNL1       -0.0250
      3 C           3.8663   -1.0668    0.0000 C.3     1  UNL1       -0.0283
      4 C           3.0003   -0.5668    0.0000 C.3     1  UNL1       -0.0135
      5 C           4.7323   -0.5668    0.0000 C.3     1  UNL1       -0.0455
      6 C           3.5000   -2.4332    0.0000 C.3     1  UNL1       -0.0590
      7 C           2.0000   -1.5672    0.0000 C.3     1  UNL1       -0.0590
      8 C           3.0003    0.4332    0.0000 C.2     1  UNL1       -0.0739
      9 C           5.5983   -1.0668    0.0000 C.3     1  UNL1       -0.0317
     10 C           3.8663    0.9332    0.0000 C.2     1  UNL1       -0.0115
     11 C           6.4644   -0.5668    0.0000 C.2     1  UNL1       -0.0765
     12 C           4.7323    0.4332    0.0000 C.3     1  UNL1       -0.0215
     13 C           5.5983    0.9332    0.0000 C.3     1  UNL1       -0.0304
     14 C           6.4644    0.4332    0.0000 C.2     1  UNL1       -0.0847
     15 C           3.8663    1.9332    0.0000 C.2     1  UNL1        0.1460
     16 C           7.3304   -1.0668    0.0000 C.3     1  UNL1       -0.0438
     17 H           4.2914   -1.8028    0.0000 H       1  UNL1        0.0312
     18 H           2.1503   -0.5667    0.0000 H       1  UNL1        0.0351
     19 H           5.1308   -0.0918    0.0000 H       1  UNL1        0.0271
     20 H           4.3338   -0.0918    0.0000 H       1  UNL1        0.0271
     21 H           2.9631   -2.7432    0.0000 H       1  UNL1        0.0235
     22 H           3.8100   -2.9702    0.0000 H       1  UNL1        0.0235
     23 H           4.0369   -2.1232    0.0000 H       1  UNL1        0.0235
     24 H           2.0000   -0.9472    0.0000 H       1  UNL1        0.0235
     25 H           1.3800   -1.5672    0.0000 H       1  UNL1        0.0235
     26 H           2.0000   -2.1872    0.0000 H       1  UNL1        0.0235
     27 H           2.4633    0.7432    0.0000 H       1  UNL1        0.0579
     28 H           5.1998   -1.5417    0.0000 H       1  UNL1        0.0310
     29 H           5.9969   -1.5417    0.0000 H       1  UNL1        0.0310
     30 H           4.3338   -0.0417    0.0000 H       1  UNL1        0.0317
     31 H           5.1308   -0.0417    0.0000 H       1  UNL1        0.0317
     32 H           5.9969    1.4082    0.0000 H       1  UNL1        0.0311
     33 H           5.1998    1.4082    0.0000 H       1  UNL1        0.0311
     34 H           7.0013    0.7432    0.0000 H       1  UNL1        0.0572
     35 H           4.4032    2.2432    0.0000 H       1  UNL1        0.1078
     36 H           7.0204   -1.6037    0.0000 H       1  UNL1        0.0274
     37 H           7.8673   -1.3768    0.0000 H       1  UNL1        0.0274
     38 H           7.6404   -0.5298    0.0000 H       1  UNL1        0.0274
@<TRIPOS>BOND
     1     1    15    2
     2     2     3    1
     3     2     4    1
     4     2     6    1
     5     2     7    1
     6     3     4    1
     7     3     5    1
     8     3    17    1
     9     4     8    1
    10     4    18    1
    11     5     9    1
    12     5    19    1
    13     5    20    1
    14     6    21    1
    15     6    22    1
    16     6    23    1
    17     7    24    1
    18     7    25    1
    19     7    26    1
    20     8    10    2
    21     8    27    1
    22     9    11    1
    23     9    28    1
    24     9    29    1
    25    10    12    1
    26    10    15    1
    27    11    14    2
    28    11    16    1
    29    12    13    1
    30    12    30    1
    31    12    31    1
    32    13    14    1
    33    13    32    1
    34    13    33    1
    35    14    34    1
    36    15    35    1
    37    16    36    1
    38    16    37    1
    39    16    38    1
