@<TRIPOS>MOLECULE
IMPHY016295
 32 31 0 0 0
SMALL
GASTEIGER

@<TRIPOS>ATOM
      1 C           2.8660    0.0670    0.0000 C.3     1  UNL1       -0.0375
      2 C           3.7320    0.5670    0.0000 C.3     1  UNL1       -0.0455
      3 C           4.5981    0.0670    0.0000 C.3     1  UNL1       -0.0434
      4 C           5.4641    0.5670    0.0000 C.3     1  UNL1       -0.0507
      5 C           2.0000   -0.4330    0.0000 C.3     1  UNL1       -0.0601
      6 C           2.3660    0.9330    0.0000 C.3     1  UNL1       -0.0601
      7 C           3.3660   -0.7990    0.0000 C.3     1  UNL1       -0.0601
      8 C           4.5981   -0.9330    0.0000 C.3     1  UNL1       -0.0624
      9 C           6.3301    0.0670    0.0000 C.3     1  UNL1       -0.0557
     10 C           7.1962    0.5670    0.0000 C.3     1  UNL1       -0.0653
     11 H           4.1306    1.0419    0.0000 H       1  UNL1        0.0273
     12 H           3.3335    1.0419    0.0000 H       1  UNL1        0.0273
     13 H           5.1350   -0.2430    0.0000 H       1  UNL1        0.0298
     14 H           5.8626    1.0419    0.0000 H       1  UNL1        0.0268
     15 H           5.0656    1.0419    0.0000 H       1  UNL1        0.0268
     16 H           1.6900    0.1039    0.0000 H       1  UNL1        0.0235
     17 H           1.4631   -0.7430    0.0000 H       1  UNL1        0.0235
     18 H           2.3100   -0.9699    0.0000 H       1  UNL1        0.0235
     19 H           2.9030    1.2430    0.0000 H       1  UNL1        0.0235
     20 H           2.0560    1.4700    0.0000 H       1  UNL1        0.0235
     21 H           1.8291    0.6230    0.0000 H       1  UNL1        0.0235
     22 H           2.8291   -1.1090    0.0000 H       1  UNL1        0.0235
     23 H           3.6760   -1.3360    0.0000 H       1  UNL1        0.0235
     24 H           3.9030   -0.4890    0.0000 H       1  UNL1        0.0235
     25 H           3.9781   -0.9330    0.0000 H       1  UNL1        0.0232
     26 H           4.5981   -1.5530    0.0000 H       1  UNL1        0.0232
     27 H           5.2181   -0.9330    0.0000 H       1  UNL1        0.0232
     28 H           5.9316   -0.4080    0.0000 H       1  UNL1        0.0263
     29 H           6.7287   -0.4080    0.0000 H       1  UNL1        0.0263
     30 H           7.5062    0.0301    0.0000 H       1  UNL1        0.0230
     31 H           7.7331    0.8770    0.0000 H       1  UNL1        0.0230
     32 H           6.8862    1.1039    0.0000 H       1  UNL1        0.0230
@<TRIPOS>BOND
     1     1     2    1
     2     1     5    1
     3     1     6    1
     4     1     7    1
     5     2     3    1
     6     2    11    1
     7     2    12    1
     8     3     4    1
     9     3     8    1
    10     3    13    1
    11     4     9    1
    12     4    14    1
    13     4    15    1
    14     5    16    1
    15     5    17    1
    16     5    18    1
    17     6    19    1
    18     6    20    1
    19     6    21    1
    20     7    22    1
    21     7    23    1
    22     7    24    1
    23     8    25    1
    24     8    26    1
    25     8    27    1
    26     9    10    1
    27     9    28    1
    28     9    29    1
    29    10    30    1
    30    10    31    1
    31    10    32    1
