@<TRIPOS>MOLECULE
IMPHY001297
 69 73 0 0 0
SMALL
GASTEIGER

@<TRIPOS>ATOM
      1 O           5.0446   -1.5394    0.0000 O.3     1  UNL1       -0.3637
      2 O           7.6004   -3.1944    0.0000 O.3     1  UNL1       -0.4557
      3 O           5.8095    2.1829    0.0000 O.3     1  UNL1       -0.3803
      4 O           2.0000   -0.0802    0.0000 O.2     1  UNL1       -0.2967
      5 O           6.5037   -4.5839    0.0000 O.2     1  UNL1       -0.2507
      6 O           4.6104    3.7836    0.0000 O.3     1  UNL1       -0.4661
      7 O           3.2242    2.7451    0.0000 O.2     1  UNL1       -0.2479
      8 O          10.2593   -1.6217    0.0000 O.2     1  UNL1       -0.4706
      9 C           5.0446    0.3084    0.0000 C.3     1  UNL1        0.0077
     10 C           5.9684    0.6911    0.0000 C.3     1  UNL1       -0.0093
     11 C           5.9684   -1.9220    0.0000 C.3     1  UNL1        0.1099
     12 C           6.8923   -1.5394    0.0000 C.3     1  UNL1        0.0426
     13 C           4.6619   -0.6155    0.0000 C.3     1  UNL1        0.0728
     14 C           4.4233    1.1445    0.0000 C.3     1  UNL1        0.0156
     15 C           5.6024   -0.6155    0.0000 C.2     1  UNL1       -0.0404
     16 C           6.8923    0.3084    0.0000 C.3     1  UNL1       -0.0451
     17 C           7.2750   -0.6155    0.0000 C.3     1  UNL1       -0.0404
     18 C           3.3896    1.0165    0.0000 C.3     1  UNL1        0.0297
     19 C           3.6314   -0.7673    0.0000 C.3     1  UNL1        0.0332
     20 C           5.4273    1.2323    0.0000 C.3     1  UNL1       -0.0563
     21 C           7.7284   -2.1606    0.0000 C.3     1  UNL1        0.1392
     22 C           5.8166   -2.9525    0.0000 C.3     1  UNL1        0.0785
     23 C           2.9909    0.0541    0.0000 C.2     1  UNL1        0.1418
     24 C           4.8166    2.0639    0.0000 C.3     1  UNL1        0.1558
     25 C           7.8162   -1.1567    0.0000 C.3     1  UNL1       -0.0529
     26 C           2.4672    1.4027    0.0000 C.3     1  UNL1       -0.0527
     27 C           3.2628    2.0084    0.0000 C.3     1  UNL1       -0.0527
     28 C           4.6066   -0.0404    0.0000 C.2     1  UNL1       -0.0964
     29 C           6.6381   -3.5930    0.0000 C.2     1  UNL1        0.3108
     30 C           8.6478   -1.7673    0.0000 C.ar    1  UNL1        0.0310
     31 C           4.2171    2.8642    0.0000 C.2     1  UNL1        0.3361
     32 C           8.8700   -0.7923    0.0000 C.ar    1  UNL1       -0.0172
     33 C           9.5064   -2.2799    0.0000 C.ar    1  UNL1        0.0984
     34 C           9.8659   -0.7023    0.0000 C.ar    1  UNL1        0.0921
     35 C           4.0109    4.5839    0.0000 C.3     1  UNL1        0.0817
     36 H           6.3934    1.4272    0.0000 H       1  UNL1        0.0353
     37 H           4.3366   -1.4008    0.0000 H       1  UNL1        0.0606
     38 H           4.0506    1.6400    0.0000 H       1  UNL1        0.0347
     39 H           7.5070    0.3893    0.0000 H       1  UNL1        0.0271
     40 H           6.9733    0.9231    0.0000 H       1  UNL1        0.0271
     41 H           7.7669   -0.9929    0.0000 H       1  UNL1        0.0273
     42 H           7.7669   -0.2380    0.0000 H       1  UNL1        0.0273
     43 H           3.0844   -1.0593    0.0000 H       1  UNL1        0.0367
     44 H           3.8254   -1.3562    0.0000 H       1  UNL1        0.0367
     45 H           6.0001    0.9950    0.0000 H       1  UNL1        0.0236
     46 H           5.6645    1.8051    0.0000 H       1  UNL1        0.0236
     47 H           4.8544    1.4696    0.0000 H       1  UNL1        0.0236
     48 H           8.2239   -2.5333    0.0000 H       1  UNL1        0.0793
     49 H           5.2277   -2.7585    0.0000 H       1  UNL1        0.0410
     50 H           5.5247   -3.4995    0.0000 H       1  UNL1        0.0410
     51 H           5.0605    2.6339    0.0000 H       1  UNL1        0.0713
     52 H           8.0535   -1.7295    0.0000 H       1  UNL1        0.0237
     53 H           8.3890   -0.9194    0.0000 H       1  UNL1        0.0237
     54 H           7.5790   -0.5839    0.0000 H       1  UNL1        0.0237
     55 H           2.7066    1.9746    0.0000 H       1  UNL1        0.0239
     56 H           3.8778    2.0870    0.0000 H       1  UNL1        0.0239
     57 H           3.1843    2.6234    0.0000 H       1  UNL1        0.0239
     58 H           2.6478    1.9298    0.0000 H       1  UNL1        0.0239
     59 H           1.8953    1.6422    0.0000 H       1  UNL1        0.0239
     60 H           2.2277    0.8308    0.0000 H       1  UNL1        0.0239
     61 H           4.6066    0.5796    0.0000 H       1  UNL1        0.0535
     62 H           4.0696   -0.3503    0.0000 H       1  UNL1        0.0535
     63 H           6.0534    2.7529    0.0000 H       1  UNL1        0.2105
     64 H           8.4619   -0.3255    0.0000 H       1  UNL1        0.0653
     65 H           9.5622   -2.8974    0.0000 H       1  UNL1        0.1033
     66 H          10.1837   -0.1700    0.0000 H       1  UNL1        0.1029
     67 H           4.5071    4.9556    0.0000 H       1  UNL1        0.0661
     68 H           3.6392    5.0801    0.0000 H       1  UNL1        0.0661
     69 H           3.5147    4.2122    0.0000 H       1  UNL1        0.0661
@<TRIPOS>BOND
     1     1    11    1
     2     1    13    1
     3     2    21    1
     4     2    29    1
     5     3    24    1
     6     3    63    1
     7     4    23    2
     8     5    29    2
     9     6    31    1
    10     6    35    1
    11     7    31    2
    12     8    33   ar
    13     8    34   ar
    14     9    10    1
    15     9    13    1
    16     9    14    1
    17     9    20    1
    18    10    15    1
    19    10    16    1
    20    10    36    1
    21    11    12    1
    22    11    15    1
    23    11    22    1
    24    12    17    1
    25    12    21    1
    26    12    25    1
    27    13    19    1
    28    13    37    1
    29    14    18    1
    30    14    24    1
    31    14    38    1
    32    15    28    2
    33    16    17    1
    34    16    39    1
    35    16    40    1
    36    17    41    1
    37    17    42    1
    38    18    23    1
    39    18    26    1
    40    18    27    1
    41    19    23    1
    42    19    43    1
    43    19    44    1
    44    20    45    1
    45    20    46    1
    46    20    47    1
    47    21    30    1
    48    21    48    1
    49    22    29    1
    50    22    49    1
    51    22    50    1
    52    24    31    1
    53    24    51    1
    54    25    52    1
    55    25    53    1
    56    25    54    1
    57    26    55    1
    58    26    59    1
    59    26    60    1
    60    27    56    1
    61    27    57    1
    62    27    58    1
    63    28    61    1
    64    28    62    1
    65    30    32   ar
    66    30    33   ar
    67    32    34   ar
    68    32    64    1
    69    33    65    1
    70    34    66    1
    71    35    67    1
    72    35    68    1
    73    35    69    1
