@<TRIPOS>MOLECULE
IMPHY001344
 22 23 0 0 0
SMALL
GASTEIGER

@<TRIPOS>ATOM
      1 N           2.9511    1.3184    0.0000 N.ar    1  UNL1       -0.3497
      2 N           4.6261   -1.7694    0.0000 N.ar    1  UNL1       -0.2626
      3 C           3.7601    0.7306    0.0000 C.ar    1  UNL1        0.0503
      4 C           3.7601   -0.2694    0.0000 C.ar    1  UNL1        0.0166
      5 C           4.5691    1.3184    0.0000 C.ar    1  UNL1       -0.0362
      6 C           3.2601    2.2694    0.0000 C.ar    1  UNL1        0.0048
      7 C           4.2601    2.2694    0.0000 C.ar    1  UNL1       -0.0436
      8 C           2.0000    1.0094    0.0000 C.3     1  UNL1        0.0119
      9 C           2.8940   -0.7694    0.0000 C.ar    1  UNL1       -0.0497
     10 C           4.6261   -0.7694    0.0000 C.ar    1  UNL1        0.0367
     11 C           2.8940   -1.7694    0.0000 C.ar    1  UNL1       -0.0430
     12 C           3.7601   -2.2694    0.0000 C.ar    1  UNL1        0.0276
     13 H           5.1588    1.1268    0.0000 H       1  UNL1        0.0639
     14 H           2.8956    2.7710    0.0000 H       1  UNL1        0.0809
     15 H           4.6245    2.7710    0.0000 H       1  UNL1        0.0633
     16 H           1.8084    1.5990    0.0000 H       1  UNL1        0.0456
     17 H           1.4103    0.8178    0.0000 H       1  UNL1        0.0456
     18 H           2.1916    0.4197    0.0000 H       1  UNL1        0.0456
     19 H           2.3571   -0.4594    0.0000 H       1  UNL1        0.0625
     20 H           5.1630   -0.4594    0.0000 H       1  UNL1        0.0836
     21 H           2.3571   -2.0794    0.0000 H       1  UNL1        0.0633
     22 H           3.7601   -2.8894    0.0000 H       1  UNL1        0.0829
@<TRIPOS>BOND
     1     1     3   ar
     2     1     6   ar
     3     1     8    1
     4     2    10   ar
     5     2    12   ar
     6     3     4    1
     7     3     5   ar
     8     4     9   ar
     9     4    10   ar
    10     5     7   ar
    11     5    13    1
    12     6     7   ar
    13     6    14    1
    14     7    15    1
    15     8    16    1
    16     8    17    1
    17     8    18    1
    18     9    11   ar
    19     9    19    1
    20    10    20    1
    21    11    12   ar
    22    11    21    1
    23    12    22    1
