@<TRIPOS>MOLECULE
IMPHY007304
 41 42 0 0 0
SMALL
GASTEIGER

@<TRIPOS>ATOM
      1 O           6.9473   -1.7447    0.0000 O.3     1  UNL1       -0.4566
      2 O           4.1502    0.2337    0.0000 O.3     1  UNL1       -0.3910
      3 O           8.5309   -0.9400    0.0000 O.2     1  UNL1       -0.2505
      4 O           2.5369    1.5600    0.0000 O.3     1  UNL1       -0.3875
      5 C           6.0010   -0.4400    0.0000 C.3     1  UNL1        0.0387
      6 C           6.9473   -0.1353    0.0000 C.3     1  UNL1        0.0625
      7 C           6.0010   -1.4400    0.0000 C.3     1  UNL1        0.1274
      8 C           5.1350    0.0600    0.0000 C.3     1  UNL1        0.0662
      9 C           5.1350    1.0600    0.0000 C.3     1  UNL1       -0.0030
     10 C           7.5309   -0.9400    0.0000 C.2     1  UNL1        0.3110
     11 C           5.1350   -1.9400    0.0000 C.2     1  UNL1       -0.0446
     12 C           7.2579    0.8153    0.0000 C.3     1  UNL1       -0.0518
     13 C           4.2690    1.5600    0.0000 C.2     1  UNL1       -0.0461
     14 C           3.4030    1.0600    0.0000 C.3     1  UNL1        0.0764
     15 C           4.2690   -1.4400    0.0000 C.2     1  UNL1       -0.0730
     16 C           3.4030    0.0600    0.0000 C.3     1  UNL1       -0.0193
     17 C           4.2690   -0.4400    0.0000 C.3     1  UNL1       -0.0292
     18 C           3.4030   -1.9400    0.0000 C.3     1  UNL1       -0.0437
     19 C           4.2690    2.5600    0.0000 C.2     1  UNL1       -0.0969
     20 H           6.0666    0.1765    0.0000 H       1  UNL1        0.0373
     21 H           6.5098    0.3041    0.0000 H       1  UNL1        0.0415
     22 H           6.0666   -2.0565    0.0000 H       1  UNL1        0.0783
     23 H           4.9230   -0.5226    0.0000 H       1  UNL1        0.0601
     24 H           5.7456    0.9523    0.0000 H       1  UNL1        0.0336
     25 H           5.3471    1.6426    0.0000 H       1  UNL1        0.0336
     26 H           5.1350   -2.5600    0.0000 H       1  UNL1        0.0608
     27 H           7.8472    0.6226    0.0000 H       1  UNL1        0.0238
     28 H           7.4505    1.4046    0.0000 H       1  UNL1        0.0238
     29 H           6.6686    1.0079    0.0000 H       1  UNL1        0.0238
     30 H           3.4030    1.6800    0.0000 H       1  UNL1        0.0640
     31 H           2.7924    0.1677    0.0000 H       1  UNL1        0.0296
     32 H           3.1909   -0.5226    0.0000 H       1  UNL1        0.0296
     33 H           4.8796   -0.5477    0.0000 H       1  UNL1        0.0311
     34 H           4.4810    0.1426    0.0000 H       1  UNL1        0.0311
     35 H           4.2579    0.8443    0.0000 H       1  UNL1        0.2098
     36 H           3.0930   -1.4031    0.0000 H       1  UNL1        0.0274
     37 H           2.8660   -2.2500    0.0000 H       1  UNL1        0.0274
     38 H           3.7130   -2.4769    0.0000 H       1  UNL1        0.0274
     39 H           4.8059    2.8700    0.0000 H       1  UNL1        0.0535
     40 H           3.7320    2.8700    0.0000 H       1  UNL1        0.0535
     41 H           2.0000    1.2500    0.0000 H       1  UNL1        0.2102
@<TRIPOS>BOND
     1     1     7    1
     2     1    10    1
     3     2     8    1
     4     2    35    1
     5     3    10    2
     6     4    14    1
     7     4    41    1
     8     5     6    1
     9     5     7    1
    10     5     8    1
    11     5    20    1
    12     6    10    1
    13     6    12    1
    14     6    21    1
    15     7    11    1
    16     7    22    1
    17     8     9    1
    18     8    23    1
    19     9    13    1
    20     9    24    1
    21     9    25    1
    22    11    15    2
    23    11    26    1
    24    12    27    1
    25    12    28    1
    26    12    29    1
    27    13    14    1
    28    13    19    2
    29    14    16    1
    30    14    30    1
    31    15    17    1
    32    15    18    1
    33    16    17    1
    34    16    31    1
    35    16    32    1
    36    17    33    1
    37    17    34    1
    38    18    36    1
    39    18    37    1
    40    18    38    1
    41    19    39    1
    42    19    40    1
