@<TRIPOS>MOLECULE
IMPHY012888
 24 25 0 0 0
SMALL
GASTEIGER

@<TRIPOS>ATOM
      1 O           6.0682   -1.4827    0.0000 O.2     1  UNL1       -0.4594
      2 O           6.0682    1.5173    0.0000 O.2     1  UNL1       -0.2868
      3 O           2.5381   -1.5068    0.0000 O.3     1  UNL1       -0.5066
      4 C           5.2022    0.0173    0.0000 C.ar    1  UNL1        0.0644
      5 C           6.9343    0.0173    0.0000 C.ar    1  UNL1        0.0346
      6 C           5.2022   -0.9827    0.0000 C.ar    1  UNL1        0.1422
      7 C           6.9343   -0.9827    0.0000 C.ar    1  UNL1        0.1091
      8 C           6.0682    0.5173    0.0000 C.ar    1  UNL1        0.1956
      9 C           4.3083    0.5520    0.0000 C.ar    1  UNL1       -0.0439
     10 C           4.3083   -1.5173    0.0000 C.ar    1  UNL1        0.0228
     11 C           7.8003    0.5173    0.0000 C.3     1  UNL1       -0.0329
     12 C           7.8003   -1.4827    0.0000 C.3     1  UNL1       -0.0060
     13 C           3.4022   -1.0035    0.0000 C.ar    1  UNL1        0.1204
     14 C           3.4022    0.0381    0.0000 C.ar    1  UNL1       -0.0193
     15 H           4.3154    1.1720    0.0000 H       1  UNL1        0.0627
     16 H           4.3154   -2.1373    0.0000 H       1  UNL1        0.0691
     17 H           8.1103   -0.0196    0.0000 H       1  UNL1        0.0280
     18 H           8.3372    0.8273    0.0000 H       1  UNL1        0.0280
     19 H           7.4903    1.0543    0.0000 H       1  UNL1        0.0280
     20 H           7.4903   -2.0196    0.0000 H       1  UNL1        0.0308
     21 H           8.3372   -1.7927    0.0000 H       1  UNL1        0.0308
     22 H           8.1103   -0.9457    0.0000 H       1  UNL1        0.0308
     23 H           2.8665    0.3502    0.0000 H       1  UNL1        0.0654
     24 H           2.0000   -1.1989    0.0000 H       1  UNL1        0.2921
@<TRIPOS>BOND
     1     1     6   ar
     2     1     7   ar
     3     2     8    2
     4     3    13    1
     5     3    24    1
     6     4     6   ar
     7     4     8   ar
     8     4     9   ar
     9     5     7   ar
    10     5     8   ar
    11     5    11    1
    12     6    10   ar
    13     7    12    1
    14     9    14   ar
    15     9    15    1
    16    10    13   ar
    17    10    16    1
    18    11    17    1
    19    11    18    1
    20    11    19    1
    21    12    20    1
    22    12    21    1
    23    12    22    1
    24    13    14   ar
    25    14    23    1
