@<TRIPOS>MOLECULE
IMPHY003783
 46 47 0 0 0
SMALL
GASTEIGER

@<TRIPOS>ATOM
      1 O           8.6759   -0.2274    0.0000 O.3     1  UNL1       -0.3899
      2 O           5.1808   -0.0146    0.0000 O.3     1  UNL1       -0.4581
      3 O           3.6857    0.1662    0.0000 O.3     1  UNL1       -0.3752
      4 O           2.6064    2.3033    0.0000 O.3     1  UNL1       -0.3886
      5 O           5.5409    1.6796    0.0000 O.2     1  UNL1       -0.2475
      6 N           7.4190   -2.4826    0.0000 N.3     1  UNL1       -0.2895
      7 C           7.4190   -1.4826    0.0000 C.3     1  UNL1        0.0611
      8 C           8.3652   -1.1779    0.0000 C.3     1  UNL1        0.0758
      9 C           8.3652   -2.7873    0.0000 C.3     1  UNL1        0.0023
     10 C           8.9488   -1.9826    0.0000 C.3     1  UNL1       -0.0122
     11 C           6.4680   -1.1736    0.0000 C.2     1  UNL1       -0.0158
     12 C           6.4680   -2.7916    0.0000 C.3     1  UNL1        0.0182
     13 C           5.8802   -1.9826    0.0000 C.2     1  UNL1       -0.0661
     14 C           6.1589   -0.2225    0.0000 C.3     1  UNL1        0.1152
     15 C           3.8936    1.1444    0.0000 C.3     1  UNL1        0.1901
     16 C           4.1015    2.1225    0.0000 C.3     1  UNL1       -0.0048
     17 C           2.9155    1.3523    0.0000 C.3     1  UNL1        0.0918
     18 C           4.8718    0.9364    0.0000 C.2     1  UNL1        0.3423
     19 C           3.3584    2.7916    0.0000 C.3     1  UNL1       -0.0594
     20 C           5.0526    2.4315    0.0000 C.3     1  UNL1       -0.0594
     21 C           2.2463    0.6091    0.0000 C.3     1  UNL1       -0.0357
     22 H           7.4201   -0.6326    0.0000 H       1  UNL1        0.0536
     23 H           8.9777   -1.0817    0.0000 H       1  UNL1        0.0612
     24 H           8.1142   -3.3542    0.0000 H       1  UNL1        0.0428
     25 H           8.9026   -3.0966    0.0000 H       1  UNL1        0.0428
     26 H           9.4097   -2.3973    0.0000 H       1  UNL1        0.0303
     27 H           9.4097   -1.5679    0.0000 H       1  UNL1        0.0303
     28 H           5.9310   -3.1016    0.0000 H       1  UNL1        0.0470
     29 H           6.7201   -3.3580    0.0000 H       1  UNL1        0.0470
     30 H           5.2602   -1.9826    0.0000 H       1  UNL1        0.0586
     31 H           6.7729   -0.1362    0.0000 H       1  UNL1        0.0746
     32 H           6.1806    0.3971    0.0000 H       1  UNL1        0.0746
     33 H           9.2826   -0.0995    0.0000 H       1  UNL1        0.2099
     34 H           3.5119    1.9309    0.0000 H       1  UNL1        0.0329
     35 H           2.3090    1.4812    0.0000 H       1  UNL1        0.0625
     36 H           5.2442    1.8419    0.0000 H       1  UNL1        0.0233
     37 H           5.6422    2.6231    0.0000 H       1  UNL1        0.0233
     38 H           3.7732    3.2524    0.0000 H       1  UNL1        0.0233
     39 H           2.8976    3.2065    0.0000 H       1  UNL1        0.0233
     40 H           2.9435    2.3309    0.0000 H       1  UNL1        0.0233
     41 H           4.8610    3.0212    0.0000 H       1  UNL1        0.0233
     42 H           1.7856    1.0240    0.0000 H       1  UNL1        0.0255
     43 H           1.8315    0.1484    0.0000 H       1  UNL1        0.0255
     44 H           2.7071    0.1943    0.0000 H       1  UNL1        0.0255
     45 H           3.0960   -0.0254    0.0000 H       1  UNL1        0.2110
     46 H           2.0000    2.4322    0.0000 H       1  UNL1        0.2099
@<TRIPOS>BOND
     1     8     1    1
     2     1    33    1
     3     2    14    1
     4     2    18    1
     5    15     3    1
     6     3    45    1
     7    17     4    1
     8     4    46    1
     9     5    18    2
    10     6     7    1
    11     6     9    1
    12     6    12    1
    13     7     8    1
    14     7    11    1
    15     7    22    1
    16     8    10    1
    17     8    23    1
    18     9    10    1
    19     9    24    1
    20     9    25    1
    21    10    26    1
    22    10    27    1
    23    11    13    2
    24    11    14    1
    25    12    13    1
    26    12    28    1
    27    12    29    1
    28    13    30    1
    29    14    31    1
    30    14    32    1
    31    15    16    1
    32    15    17    1
    33    15    18    1
    34    16    19    1
    35    16    20    1
    36    16    34    1
    37    17    21    1
    38    17    35    1
    39    19    38    1
    40    19    39    1
    41    19    40    1
    42    20    36    1
    43    20    37    1
    44    20    41    1
    45    21    42    1
    46    21    43    1
    47    21    44    1
