@<TRIPOS>MOLECULE
IMPHY002358
 41 45 0 0 0
SMALL
GASTEIGER

@<TRIPOS>ATOM
      1 O        2569.2800 2468.8300    0.0000 O.3     1  UNL1       -0.4504
      2 C        2569.2800 2351.2200    0.0000 C.ar    1  UNL1        0.1442
      3 C        2534.5400 2331.2700    0.0000 C.ar    1  UNL1        0.0761
      4 C        2534.5400 2291.2700    0.0000 C.ar    1  UNL1        0.0447
      5 C        2500.0000 2271.2200    0.0000 C.2     1  UNL1        0.1959
      6 O        2500.0000 2231.2200    0.0000 O.2     1  UNL1       -0.2866
      7 C        2465.2600 2291.2700    0.0000 C.ar    1  UNL1        0.0451
      8 C        2465.2600 2331.2700    0.0000 C.ar    1  UNL1        0.0810
      9 C        2500.0000 2351.2200    0.0000 C.2     1  UNL1        0.2018
     10 O        2500.0000 2391.2200    0.0000 O.2     1  UNL1       -0.2864
     11 C        2430.6200 2351.2200    0.0000 C.ar    1  UNL1        0.1988
     12 O        2430.6200 2391.2200    0.0000 O.3     1  UNL1       -0.2865
     13 C        2395.9800 2331.2700    0.0000 C.ar    1  UNL1        0.0421
     14 C        2395.9800 2291.2700    0.0000 C.ar    1  UNL1        0.0034
     15 C        2430.6200 2271.2200    0.0000 C.ar    1  UNL1        0.0035
     16 C        2569.2800 2271.2200    0.0000 C.ar    1  UNL1       -0.0008
     17 C        2603.8200 2291.2700    0.0000 C.ar    1  UNL1       -0.0187
     18 C        2603.8200 2331.2700    0.0000 C.ar    1  UNL1        0.0329
     19 C        2638.4600 2271.2200    0.0000 C.3     1  UNL1        0.0311
     20 C        2534.6400 2488.7800    0.0000 C.3     1  UNL1        0.3218
     21 O        2534.6400 2528.7800    0.0000 O.3     1  UNL1       -0.3158
     22 C        2500.1000 2548.8300    0.0000 C.3     1  UNL1        0.1813
     23 C        2500.1000 2588.8300    0.0000 C.3     1  UNL1        0.1771
     24 O        2465.4600 2608.7800    0.0000 O.3     1  UNL1       -0.3259
     25 C        2465.4600 2648.7800    0.0000 C.3     1  UNL1        0.2695
     26 O        2430.8200 2668.8300    0.0000 O.3     1  UNL1       -0.3256
     27 C        2430.8200 2708.8300    0.0000 C.3     1  UNL1        0.1835
     28 C        2396.1800 2728.7800    0.0000 C.3     1  UNL1        0.2142
     29 O        2361.5400 2708.8300    0.0000 O.3     1  UNL1       -0.2176
     30 C        2465.4600 2728.7800    0.0000 C.3     1  UNL1        0.2144
     31 C        2500.1000 2708.8300    0.0000 C.3     1  UNL1        0.2198
     32 C        2500.1000 2668.8300    0.0000 C.3     1  UNL1        0.2406
     33 O        2534.7400 2648.7800    0.0000 O.3     1  UNL1       -0.2149
     34 O        2534.7400 2728.7800    0.0000 O.3     1  UNL1       -0.2174
     35 O        2465.4600 2768.7800    0.0000 O.3     1  UNL1       -0.2176
     36 C        2465.3600 2528.7800    0.0000 C.3     1  UNL1        0.2144
     37 C        2465.3600 2488.7800    0.0000 C.3     1  UNL1        0.2211
     38 C        2500.1000 2468.8300    0.0000 C.3     1  UNL1        0.2542
     39 O        2500.1000 2428.8300    0.0000 O.3     1  UNL1       -0.2135
     40 O        2430.7200 2468.8300    0.0000 O.3     1  UNL1       -0.2173
     41 O        2430.7200 2548.8300    0.0000 O.3     1  UNL1       -0.2176
@<TRIPOS>BOND
     1     1     2    1
     2     2     3   ar
     3     2    18   ar
     4     3     4   ar
     5     3     9    1
     6     4     5    1
     7     4    16   ar
     8     5     6    2
     9     5     7    1
    10     7    15   ar
    11     8     7   ar
    12     8    11   ar
    13     9     8    1
    14     9    10    2
    15    11    12    1
    16    11    13   ar
    17    13    14   ar
    18    15    14   ar
    19    17    16   ar
    20    17    19    1
    21    18    17   ar
    22    20     1    1
    23    20    21    1
    24    20    38    1
    25    21    22    1
    26    22    23    1
    27    22    36    1
    28    23    24    1
    29    25    24    1
    30    25    26    1
    31    25    32    1
    32    26    27    1
    33    27    28    1
    34    27    30    1
    35    28    29    1
    36    30    35    1
    37    31    30    1
    38    31    34    1
    39    32    31    1
    40    32    33    1
    41    36    41    1
    42    37    36    1
    43    37    40    1
    44    38    37    1
    45    38    39    1
