@<TRIPOS>MOLECULE
IMPHY010897
 44 47 0 0 0
SMALL
GASTEIGER

@<TRIPOS>ATOM
      1 O           9.7082    0.7972    0.0000 O.3     1  UNL1       -0.3649
      2 O           7.7902    3.2334    0.0000 O.3     1  UNL1       -0.3812
      3 O           9.0532    3.4789    0.0000 O.3     1  UNL1       -0.3859
      4 O           5.9670    1.2335    0.0000 O.2     1  UNL1       -0.4707
      5 O           6.8671   -0.2908    0.0000 O.3     1  UNL1       -0.3094
      6 O           5.1350   -0.2908    0.0000 O.3     1  UNL1       -0.3404
      7 O           6.8671   -2.2908    0.0000 O.3     1  UNL1       -0.3841
      8 O           5.1350   -3.2908    0.0000 O.3     1  UNL1       -0.3864
      9 O           3.4030   -2.2908    0.0000 O.3     1  UNL1       -0.3865
     10 O           2.5369   -0.7908    0.0000 O.3     1  UNL1       -0.3924
     11 C           8.7145    0.9135    0.0000 C.3     1  UNL1        0.0994
     12 C           9.3116    1.7157    0.0000 C.3     1  UNL1        0.1146
     13 C           7.7671    1.2335    0.0000 C.3     1  UNL1        0.0852
     14 C           7.7787    2.2335    0.0000 C.3     1  UNL1        0.1263
     15 C           8.7333    2.5315    0.0000 C.3     1  UNL1        0.1165
     16 C           6.8671    0.7092    0.0000 C.3     1  UNL1        0.2117
     17 C           6.8910    2.7784    0.0000 C.2     1  UNL1       -0.0153
     18 C           5.9790    2.2751    0.0000 C.2     1  UNL1        0.0867
     19 C           6.0010   -0.7908    0.0000 C.3     1  UNL1        0.1918
     20 C           6.0010   -1.7908    0.0000 C.3     1  UNL1        0.1342
     21 C           5.1350   -2.2908    0.0000 C.3     1  UNL1        0.1141
     22 C           4.2690   -1.7908    0.0000 C.3     1  UNL1        0.1119
     23 C           4.2690   -0.7908    0.0000 C.3     1  UNL1        0.1130
     24 C           3.4030   -0.2908    0.0000 C.3     1  UNL1        0.0730
     25 H           8.5786    0.3086    0.0000 H       1  UNL1        0.0629
     26 H           9.8521    2.0195    0.0000 H       1  UNL1        0.0649
     27 H           7.8527    0.3878    0.0000 H       1  UNL1        0.0420
     28 H           9.3467    2.6214    0.0000 H       1  UNL1        0.0652
     29 H           7.4046    0.4003    0.0000 H       1  UNL1        0.1061
     30 H           6.9053    3.3983    0.0000 H       1  UNL1        0.0632
     31 H           7.2569    3.5496    0.0000 H       1  UNL1        0.2107
     32 H           9.6611    3.6008    0.0000 H       1  UNL1        0.2100
     33 H           5.4470    2.5933    0.0000 H       1  UNL1        0.1022
     34 H           6.0010   -0.1708    0.0000 H       1  UNL1        0.0939
     35 H           6.0010   -2.4108    0.0000 H       1  UNL1        0.0671
     36 H           4.5981   -2.6008    0.0000 H       1  UNL1        0.0648
     37 H           3.7320   -1.4808    0.0000 H       1  UNL1        0.0647
     38 H           4.2690   -0.1708    0.0000 H       1  UNL1        0.0647
     39 H           3.8015    0.1842    0.0000 H       1  UNL1        0.0584
     40 H           3.0044    0.1842    0.0000 H       1  UNL1        0.0584
     41 H           6.8671   -2.9108    0.0000 H       1  UNL1        0.2101
     42 H           4.5981   -3.6008    0.0000 H       1  UNL1        0.2100
     43 H           3.4030   -2.9108    0.0000 H       1  UNL1        0.2100
     44 H           2.0000   -0.4808    0.0000 H       1  UNL1        0.2095
@<TRIPOS>BOND
     1    11     1    1
     2    12     1    1
     3    14     2    1
     4     2    31    1
     5    15     3    1
     6     3    32    1
     7     4    16    1
     8     4    18    1
     9    16     5    1
    10    19     5    1
    11     6    19    1
    12     6    23    1
    13    20     7    1
    14     7    41    1
    15    21     8    1
    16     8    42    1
    17    22     9    1
    18     9    43    1
    19    10    24    1
    20    10    44    1
    21    11    12    1
    22    11    13    1
    23    11    25    1
    24    12    15    1
    25    12    26    1
    26    13    14    1
    27    13    16    1
    28    13    27    1
    29    14    15    1
    30    14    17    1
    31    15    28    1
    32    16    29    1
    33    17    18    2
    34    17    30    1
    35    18    33    1
    36    19    20    1
    37    19    34    1
    38    20    21    1
    39    20    35    1
    40    21    22    1
    41    21    36    1
    42    22    23    1
    43    22    37    1
    44    23    24    1
    45    23    38    1
    46    24    39    1
    47    24    40    1
