@<TRIPOS>MOLECULE
IMPHY001588
 92 96 0 0 0
SMALL
GASTEIGER

@<TRIPOS>ATOM
      1 O          11.1223    0.9385    0.0000 O.3     1  UNL1       -0.4571
      2 O           2.0000   -2.8398    0.0000 O.2     1  UNL1       -0.2968
      3 O          10.0707   -1.2599    0.0000 O.3     1  UNL1       -0.4801
      4 O          11.0491   -0.4260    0.0000 O.2     1  UNL1       -0.2502
      5 O          10.8282    2.6453    0.0000 O.2     1  UNL1       -0.2456
      6 C           6.5271   -1.2874    0.0000 C.3     1  UNL1       -0.0194
      7 C           5.6610   -0.7874    0.0000 C.3     1  UNL1       -0.0257
      8 C           7.3931   -0.7874    0.0000 C.3     1  UNL1       -0.0051
      9 C           4.7510   -1.2943    0.0000 C.3     1  UNL1       -0.0243
     10 C           4.7430   -2.3359    0.0000 C.3     1  UNL1       -0.0235
     11 C           6.5431   -2.3290    0.0000 C.3     1  UNL1       -0.0463
     12 C           7.3931    0.2126    0.0000 C.2     1  UNL1       -0.0627
     13 C           8.2870    0.7472    0.0000 C.3     1  UNL1        0.0003
     14 C           5.6451   -2.8567    0.0000 C.3     1  UNL1       -0.0483
     15 C           9.1931    0.2334    0.0000 C.3     1  UNL1        0.1107
     16 C           8.2870   -1.3221    0.0000 C.3     1  UNL1       -0.0423
     17 C           5.6610    0.2126    0.0000 C.3     1  UNL1       -0.0306
     18 C           3.8076   -2.8856    0.0000 C.3     1  UNL1        0.0267
     19 C           3.8242   -0.7302    0.0000 C.3     1  UNL1       -0.0404
     20 C           9.1931   -0.8083    0.0000 C.3     1  UNL1       -0.0324
     21 C           7.1698   -2.0535    0.0000 C.3     1  UNL1       -0.0585
     22 C           6.5271    0.7126    0.0000 C.2     1  UNL1       -0.0836
     23 C           7.7352   -1.7271    0.0000 C.3     1  UNL1       -0.0553
     24 C           8.2619    1.8319    0.0000 C.3     1  UNL1       -0.0401
     25 C           4.7587   -0.2943    0.0000 C.3     1  UNL1       -0.0590
     26 C          10.1369    0.7686    0.0000 C.3     1  UNL1        0.1201
     27 C           9.1931    2.3888    0.0000 C.3     1  UNL1       -0.0309
     28 C           2.8763   -1.2582    0.0000 C.3     1  UNL1        0.0069
     29 C          10.1369    1.8536    0.0000 C.3     1  UNL1       -0.0094
     30 C           2.8680   -2.3431    0.0000 C.2     1  UNL1        0.1392
     31 C           3.3109   -3.7536    0.0000 C.3     1  UNL1       -0.0528
     32 C           4.3109   -3.7497    0.0000 C.3     1  UNL1       -0.0528
     33 C          10.0629   -0.2599    0.0000 C.2     1  UNL1        0.3151
     34 C           9.6830    3.2606    0.0000 C.3     1  UNL1       -0.0597
     35 C           8.6831    3.2490    0.0000 C.3     1  UNL1       -0.0597
     36 C          11.4680    1.8768    0.0000 C.2     1  UNL1        0.3322
     37 C          12.4535    2.0467    0.0000 C.2     1  UNL1        0.0212
     38 C          12.7991    2.9850    0.0000 C.2     1  UNL1       -0.0690
     39 C          13.7846    3.1549    0.0000 C.3     1  UNL1       -0.0435
     40 C          12.1593    3.7536    0.0000 C.3     1  UNL1       -0.0435
     41 H           6.3972   -0.3624    0.0000 H       1  UNL1        0.0315
     42 H           4.7463   -3.1859    0.0000 H       1  UNL1        0.0315
     43 H           6.7612   -2.9094    0.0000 H       1  UNL1        0.0271
     44 H           7.1523   -2.2134    0.0000 H       1  UNL1        0.0271
     45 H           9.0165    1.1835    0.0000 H       1  UNL1        0.0358
     46 H           5.2478   -3.3327    0.0000 H       1  UNL1        0.0269
     47 H           6.0460   -3.3296    0.0000 H       1  UNL1        0.0269
     48 H           7.8824   -1.7919    0.0000 H       1  UNL1        0.0274
     49 H           8.6806   -1.8011    0.0000 H       1  UNL1        0.0274
     50 H           5.4490    0.7952    0.0000 H       1  UNL1        0.0310
     51 H           5.0504    0.1049    0.0000 H       1  UNL1        0.0310
     52 H           4.2324   -0.2636    0.0000 H       1  UNL1        0.0275
     53 H           3.4343   -0.2482    0.0000 H       1  UNL1        0.0275
     54 H           9.4022   -1.3920    0.0000 H       1  UNL1        0.0277
     55 H           9.8040   -0.7022    0.0000 H       1  UNL1        0.0277
     56 H           6.6949   -2.4520    0.0000 H       1  UNL1        0.0235
     57 H           7.5684   -2.5284    0.0000 H       1  UNL1        0.0235
     58 H           7.6448   -1.6550    0.0000 H       1  UNL1        0.0235
     59 H           6.5271    1.3326    0.0000 H       1  UNL1        0.0572
     60 H           7.1526   -1.9392    0.0000 H       1  UNL1        0.0238
     61 H           7.9473   -2.3097    0.0000 H       1  UNL1        0.0238
     62 H           8.3178   -1.5150    0.0000 H       1  UNL1        0.0238
     63 H           8.0394    2.4106    0.0000 H       1  UNL1        0.0276
     64 H           7.6537    1.7117    0.0000 H       1  UNL1        0.0276
     65 H           5.3787   -0.2991    0.0000 H       1  UNL1        0.0235
     66 H           4.7635    0.3257    0.0000 H       1  UNL1        0.0235
     67 H           4.1388   -0.2895    0.0000 H       1  UNL1        0.0235
     68 H          10.3456    0.1848    0.0000 H       1  UNL1        0.0745
     69 H           2.6718   -0.6729    0.0000 H       1  UNL1        0.0342
     70 H           2.2647   -1.3595    0.0000 H       1  UNL1        0.0342
     71 H          10.7477    1.7475    0.0000 H       1  UNL1        0.0306
     72 H          10.3459    2.4373    0.0000 H       1  UNL1        0.0306
     73 H           2.7728   -3.4456    0.0000 H       1  UNL1        0.0239
     74 H           3.0030   -4.2917    0.0000 H       1  UNL1        0.0239
     75 H           3.8490   -4.0615    0.0000 H       1  UNL1        0.0239
     76 H           3.7752   -4.0618    0.0000 H       1  UNL1        0.0239
     77 H           4.6230   -4.2854    0.0000 H       1  UNL1        0.0239
     78 H           4.8466   -3.4376    0.0000 H       1  UNL1        0.0239
     79 H          10.2235    2.9568    0.0000 H       1  UNL1        0.0235
     80 H           9.9868    3.8011    0.0000 H       1  UNL1        0.0235
     81 H           9.1426    3.5644    0.0000 H       1  UNL1        0.0235
     82 H           9.2164    3.5652    0.0000 H       1  UNL1        0.0235
     83 H           8.3669    3.7823    0.0000 H       1  UNL1        0.0235
     84 H           8.1498    2.9328    0.0000 H       1  UNL1        0.0235
     85 H          10.6100   -1.5658    0.0000 H       1  UNL1        0.2951
     86 H          12.8502    1.5702    0.0000 H       1  UNL1        0.0688
     87 H          13.8899    2.5439    0.0000 H       1  UNL1        0.0274
     88 H          14.3956    3.2602    0.0000 H       1  UNL1        0.0274
     89 H          13.6793    3.7659    0.0000 H       1  UNL1        0.0274
     90 H          12.6357    4.1503    0.0000 H       1  UNL1        0.0274
     91 H          11.7626    4.2300    0.0000 H       1  UNL1        0.0274
     92 H          11.6828    3.3569    0.0000 H       1  UNL1        0.0274
@<TRIPOS>BOND
     1    26     1    1
     2     1    36    1
     3     2    30    2
     4     3    33    1
     5     3    85    1
     6     4    33    2
     7     5    36    2
     8     6     7    1
     9     6     8    1
    10     6    11    1
    11     6    21    1
    12     7     9    1
    13     7    17    1
    14     7    41    1
    15     8    12    1
    16     8    16    1
    17     8    23    1
    18     9    10    1
    19     9    19    1
    20     9    25    1
    21    10    14    1
    22    10    18    1
    23    10    42    1
    24    11    14    1
    25    11    43    1
    26    11    44    1
    27    12    13    1
    28    12    22    2
    29    13    15    1
    30    13    24    1
    31    13    45    1
    32    14    46    1
    33    14    47    1
    34    15    20    1
    35    15    26    1
    36    15    33    1
    37    16    20    1
    38    16    48    1
    39    16    49    1
    40    17    22    1
    41    17    50    1
    42    17    51    1
    43    18    30    1
    44    18    31    1
    45    18    32    1
    46    19    28    1
    47    19    52    1
    48    19    53    1
    49    20    54    1
    50    20    55    1
    51    21    56    1
    52    21    57    1
    53    21    58    1
    54    22    59    1
    55    23    60    1
    56    23    61    1
    57    23    62    1
    58    24    27    1
    59    24    63    1
    60    24    64    1
    61    25    65    1
    62    25    66    1
    63    25    67    1
    64    26    29    1
    65    26    68    1
    66    27    29    1
    67    27    34    1
    68    27    35    1
    69    28    30    1
    70    28    69    1
    71    28    70    1
    72    29    71    1
    73    29    72    1
    74    31    73    1
    75    31    74    1
    76    31    75    1
    77    32    76    1
    78    32    77    1
    79    32    78    1
    80    34    79    1
    81    34    80    1
    82    34    81    1
    83    35    82    1
    84    35    83    1
    85    35    84    1
    86    36    37    1
    87    37    38    2
    88    37    86    1
    89    38    39    1
    90    38    40    1
    91    39    87    1
    92    39    88    1
    93    39    89    1
    94    40    90    1
    95    40    91    1
    96    40    92    1
