@<TRIPOS>MOLECULE
IMPHY007269
 37 39 0 0 0
SMALL
GASTEIGER

@<TRIPOS>ATOM
      1 O           4.4487    1.5000    0.0000 O.2     1  UNL1       -0.2706
      2 O          11.4571    0.3047    0.0000 O.3     1  UNL1       -0.4526
      3 O          11.4571   -1.3047    0.0000 O.3     1  UNL1       -0.4526
      4 N           3.5827   -0.0000    0.0000 N.am    1  UNL1       -0.2980
      5 C           2.0000   -0.3364    0.0000 C.3     1  UNL1       -0.0357
      6 C           2.5000   -1.2024    0.0000 C.3     1  UNL1       -0.0357
      7 C           2.6691    0.4067    0.0000 C.3     1  UNL1        0.0150
      8 C           3.4782   -0.9945    0.0000 C.3     1  UNL1        0.0150
      9 C           4.4487    0.5000    0.0000 C.2     1  UNL1        0.2394
     10 C           5.3147   -0.0000    0.0000 C.2     1  UNL1        0.0003
     11 C           6.1808    0.5000    0.0000 C.2     1  UNL1       -0.0568
     12 C          10.5109    0.0000    0.0000 C.ar    1  UNL1        0.1668
     13 C           8.7788    0.0000    0.0000 C.ar    1  UNL1       -0.0213
     14 C          10.5109   -1.0000    0.0000 C.ar    1  UNL1        0.1663
     15 C           9.6448    0.5000    0.0000 C.ar    1  UNL1       -0.0090
     16 C           8.7788   -1.0000    0.0000 C.ar    1  UNL1       -0.0509
     17 C           9.6448   -1.5000    0.0000 C.ar    1  UNL1       -0.0156
     18 C           7.0468    0.0000    0.0000 C.2     1  UNL1       -0.0610
     19 C           7.9128    0.5000    0.0000 C.2     1  UNL1       -0.0545
     20 C          12.0407   -0.5000    0.0000 C.3     1  UNL1        0.2332
     21 H           1.5851    0.1243    0.0000 H       1  UNL1        0.0281
     22 H           1.4984   -0.7008    0.0000 H       1  UNL1        0.0281
     23 H           1.9336   -1.4546    0.0000 H       1  UNL1        0.0281
     24 H           2.6916   -1.7921    0.0000 H       1  UNL1        0.0281
     25 H           2.9791    0.9437    0.0000 H       1  UNL1        0.0465
     26 H           2.1675    0.7712    0.0000 H       1  UNL1        0.0465
     27 H           3.5430   -1.6111    0.0000 H       1  UNL1        0.0465
     28 H           4.0982   -0.9945    0.0000 H       1  UNL1        0.0465
     29 H           5.3147   -0.6200    0.0000 H       1  UNL1        0.0669
     30 H           6.1808    1.1200    0.0000 H       1  UNL1        0.0619
     31 H           9.6448    1.1200    0.0000 H       1  UNL1        0.0661
     32 H           9.6448   -2.1200    0.0000 H       1  UNL1        0.0655
     33 H           8.2419   -1.3100    0.0000 H       1  UNL1        0.0625
     34 H           7.9128    1.1200    0.0000 H       1  UNL1        0.0623
     35 H           7.0468   -0.6200    0.0000 H       1  UNL1        0.0618
     36 H          12.5016   -0.9147    0.0000 H       1  UNL1        0.1166
     37 H          12.5016   -0.0853    0.0000 H       1  UNL1        0.1166
@<TRIPOS>BOND
     1     1     9    2
     2     2    12    1
     3     2    20    1
     4     3    14    1
     5     3    20    1
     6     4     7    1
     7     4     8    1
     8     4     9   am
     9     5     6    1
    10     5     7    1
    11     5    21    1
    12     5    22    1
    13     6     8    1
    14     6    23    1
    15     6    24    1
    16     7    25    1
    17     7    26    1
    18     8    27    1
    19     8    28    1
    20     9    10    1
    21    10    11    2
    22    10    29    1
    23    11    18    1
    24    11    30    1
    25    12    14   ar
    26    12    15   ar
    27    13    15   ar
    28    13    16   ar
    29    13    19    1
    30    14    17   ar
    31    15    31    1
    32    16    17   ar
    33    16    33    1
    34    17    32    1
    35    18    19    2
    36    18    35    1
    37    19    34    1
    38    20    36    1
    39    20    37    1
