@<TRIPOS>MOLECULE
IMPHY010425
 60 68 0 0 0
SMALL
GASTEIGER

@<TRIPOS>ATOM
      1 O           5.5954   -6.1157    0.0000 O.3     1  UNL1       -0.3368
      2 O           3.9301   -5.0345    0.0000 O.3     1  UNL1       -0.3343
      3 O          12.0027   -0.7365    0.0000 O.3     1  UNL1       -0.3307
      4 O          12.8630    0.7668    0.0000 O.3     1  UNL1       -0.3257
      5 O          10.2668    0.2568    0.0000 O.3     1  UNL1       -0.2150
      6 O          10.2591    2.2568    0.0000 O.3     1  UNL1       -0.3256
      7 O          11.9873    3.2635    0.0000 O.3     1  UNL1       -0.3259
      8 O          14.5912    1.7735    0.0000 O.3     1  UNL1       -0.2176
      9 O          11.0620    3.8477    0.0000 O.3     1  UNL1       -0.3256
     10 O          13.7194    3.2701    0.0000 O.3     1  UNL1       -0.3284
     11 O           8.4941    3.5288    0.0000 O.3     1  UNL1       -0.2149
     12 O          11.9796    5.2634    0.0000 O.3     1  UNL1       -0.2149
     13 O           9.1585    5.6004    0.0000 O.3     1  UNL1       -0.2175
     14 O          13.7078    6.2701    0.0000 O.3     1  UNL1       -0.2174
     15 O          15.4437    5.2768    0.0000 O.3     1  UNL1       -0.2177
     16 O          10.9238    6.5208    0.0000 O.3     1  UNL1       -0.2176
     17 C           6.6628   -3.8809    0.0000 C.3     1  UNL1        0.0025
     18 C           7.5288   -4.3809    0.0000 C.3     1  UNL1        0.0028
     19 C           5.9258   -4.5480    0.0000 C.3     1  UNL1        0.0320
     20 C           8.3948   -3.8809    0.0000 C.3     1  UNL1        0.0047
     21 C           6.3309   -5.4558    0.0000 C.3     1  UNL1        0.1177
     22 C           8.3948   -2.8809    0.0000 C.3     1  UNL1        0.0038
     23 C           7.3196   -5.3527    0.0000 C.3     1  UNL1        0.0297
     24 C           6.6628   -2.8809    0.0000 C.3     1  UNL1        0.0001
     25 C           4.9434   -4.6547    0.0000 C.3     1  UNL1        0.0539
     26 C           7.5288   -2.3809    0.0000 C.3     1  UNL1        0.0003
     27 C           9.2888   -2.3462    0.0000 C.3     1  UNL1        0.0150
     28 C           4.7396   -5.6216    0.0000 C.3     1  UNL1        0.1868
     29 C           5.7968   -3.3809    0.0000 C.3     1  UNL1        0.0001
     30 C           9.2888   -4.4156    0.0000 C.3     1  UNL1        0.0254
     31 C          10.1949   -2.8601    0.0000 C.2     1  UNL1       -0.0467
     32 C           9.2637   -1.2615    0.0000 C.3     1  UNL1        0.0062
     33 C           4.2723   -3.9133    0.0000 C.3     1  UNL1        0.0051
     34 C           4.6359   -6.6162    0.0000 C.3     1  UNL1        0.0563
     35 C          10.1949   -3.9017    0.0000 C.2     1  UNL1       -0.0345
     36 C           8.4189   -1.8529    0.0000 C.3     1  UNL1        0.0040
     37 C          11.1386   -2.3248    0.0000 C.3     1  UNL1        0.0513
     38 C          10.1949   -0.7046    0.0000 C.3     1  UNL1        0.0303
     39 C          11.1386   -1.2399    0.0000 C.3     1  UNL1        0.1219
     40 C           3.7227   -7.0238    0.0000 C.3     1  UNL1        0.0075
     41 C           2.9132   -6.4367    0.0000 C.3     1  UNL1        0.0299
     42 C           3.0169   -5.4421    0.0000 C.3     1  UNL1        0.1446
     43 C           2.0000   -6.8442    0.0000 C.3     1  UNL1        0.0026
     44 C          11.9989    0.2635    0.0000 C.3     1  UNL1        0.2693
     45 C          11.1309    0.7601    0.0000 C.3     1  UNL1        0.2373
     46 C          11.1271    1.7601    0.0000 C.3     1  UNL1        0.1827
     47 C          12.8591    1.7668    0.0000 C.3     1  UNL1        0.1802
     48 C          11.9912    2.2635    0.0000 C.3     1  UNL1        0.1772
     49 C          13.7232    2.2701    0.0000 C.3     1  UNL1        0.2141
     50 C          10.2553    3.2568    0.0000 C.3     1  UNL1        0.2695
     51 C          12.8514    3.7668    0.0000 C.3     1  UNL1        0.2695
     52 C           9.4440    3.8414    0.0000 C.3     1  UNL1        0.2404
     53 C          12.8476    4.7668    0.0000 C.3     1  UNL1        0.2406
     54 C           9.7494    4.7937    0.0000 C.3     1  UNL1        0.2168
     55 C          10.7493    4.7975    0.0000 C.3     1  UNL1        0.1836
     56 C          13.7116    5.2701    0.0000 C.3     1  UNL1        0.2197
     57 C          14.5834    3.7735    0.0000 C.3     1  UNL1        0.1508
     58 C          14.5796    4.7735    0.0000 C.3     1  UNL1        0.2118
     59 C          11.3340    5.6088    0.0000 C.3     1  UNL1        0.2142
     60 C          15.4514    3.2768    0.0000 C.3     1  UNL1        0.0350
@<TRIPOS>BOND
     1     1    21    1
     2     1    28    1
     3     2    28    1
     4     2    42    1
     5     4    44    1
     6     4    47    1
     7     8    49    1
     8     9    50    1
     9     9    55    1
    10    10    51    1
    11    10    57    1
    12    16    59    1
    13    17    18    1
    14    17    19    1
    15    17    24    1
    16    17    29    1
    17    18    20    1
    18    18    23    1
    19    19    21    1
    20    19    25    1
    21    20    22    1
    22    20    30    1
    23    21    23    1
    24    22    26    1
    25    22    27    1
    26    24    26    1
    27    25    28    1
    28    25    33    1
    29    27    31    1
    30    27    32    1
    31    27    36    1
    32    28    34    1
    33    30    35    1
    34    31    35    2
    35    31    37    1
    36    32    38    1
    37    34    40    1
    38    37    39    1
    39    38    39    1
    40    39     3    1
    41    40    41    1
    42    41    42    1
    43    41    43    1
    44    44     3    1
    45    44    45    1
    46    45     5    1
    47    45    46    1
    48    46     6    1
    49    46    48    1
    50    47    48    1
    51    47    49    1
    52    48     7    1
    53    50     6    1
    54    50    52    1
    55    51     7    1
    56    51    53    1
    57    52    11    1
    58    52    54    1
    59    53    12    1
    60    53    56    1
    61    54    13    1
    62    54    55    1
    63    55    59    1
    64    56    14    1
    65    56    58    1
    66    57    58    1
    67    57    60    1
    68    58    15    1
