@<TRIPOS>MOLECULE
IMPHY009394
 33 34 0 0 0
SMALL
GASTEIGER

@<TRIPOS>ATOM
      1 O           5.1350    0.1348    0.0000 O.3     1  UNL1       -0.3405
      2 O           6.8671    0.1348    0.0000 O.3     1  UNL1       -0.3320
      3 O           5.1350   -2.8652    0.0000 O.3     1  UNL1       -0.3864
      4 O           3.4030   -1.8652    0.0000 O.3     1  UNL1       -0.3865
      5 O           6.8671   -1.8652    0.0000 O.3     1  UNL1       -0.3841
      6 O           2.5369   -0.3652    0.0000 O.3     1  UNL1       -0.3924
      7 O           5.1070    1.4136    0.0000 O.2     1  UNL1       -0.2723
      8 N           6.3671    2.6736    0.0000 N.am    1  UNL1       -0.2898
      9 C           5.1350   -1.8652    0.0000 C.3     1  UNL1        0.1141
     10 C           4.2690   -1.3652    0.0000 C.3     1  UNL1        0.1119
     11 C           6.0010   -1.3652    0.0000 C.3     1  UNL1        0.1341
     12 C           4.2690   -0.3652    0.0000 C.3     1  UNL1        0.1130
     13 C           6.0010   -0.3652    0.0000 C.3     1  UNL1        0.1892
     14 C           3.4030    0.1348    0.0000 C.3     1  UNL1        0.0730
     15 C           6.8671    1.1348    0.0000 C.3     1  UNL1        0.1572
     16 C           6.0580    1.7226    0.0000 C.2     1  UNL1        0.2498
     17 C           7.6761    1.7226    0.0000 C.2     1  UNL1       -0.0328
     18 C           7.3671    2.6736    0.0000 C.2     1  UNL1       -0.0047
     19 H           5.6720   -2.1752    0.0000 H       1  UNL1        0.0648
     20 H           4.2690   -1.9852    0.0000 H       1  UNL1        0.0647
     21 H           6.5380   -1.0552    0.0000 H       1  UNL1        0.0671
     22 H           4.2690    0.2548    0.0000 H       1  UNL1        0.0647
     23 H           6.0010    0.2548    0.0000 H       1  UNL1        0.0938
     24 H           3.8015    0.6097    0.0000 H       1  UNL1        0.0584
     25 H           3.0044    0.6097    0.0000 H       1  UNL1        0.0584
     26 H           7.4195    0.8533    0.0000 H       1  UNL1        0.0740
     27 H           4.5981   -3.1752    0.0000 H       1  UNL1        0.2100
     28 H           3.4030   -2.4852    0.0000 H       1  UNL1        0.2100
     29 H           6.8671   -2.4852    0.0000 H       1  UNL1        0.2101
     30 H           8.2657    1.5310    0.0000 H       1  UNL1        0.0615
     31 H           2.0000   -0.0552    0.0000 H       1  UNL1        0.2095
     32 H           6.0026    3.1752    0.0000 H       1  UNL1        0.1543
     33 H           7.7315    3.1752    0.0000 H       1  UNL1        0.0780
@<TRIPOS>BOND
     1     1    12    1
     2     1    13    1
     3     2    13    1
     4     2    15    1
     5     3     9    1
     6     3    27    1
     7     4    10    1
     8     4    28    1
     9     5    11    1
    10     5    29    1
    11     6    14    1
    12     6    31    1
    13     7    16    2
    14     8    16   am
    15     8    18    1
    16     8    32    1
    17     9    10    1
    18     9    11    1
    19     9    19    1
    20    10    12    1
    21    10    20    1
    22    11    13    1
    23    11    21    1
    24    12    14    1
    25    12    22    1
    26    13    23    1
    27    14    24    1
    28    14    25    1
    29    15    16    1
    30    15    17    1
    31    15    26    1
    32    17    18    2
    33    17    30    1
    34    18    33    1
