@<TRIPOS>MOLECULE
IMPHY009553
 47 47 0 0 0
SMALL
GASTEIGER

@<TRIPOS>ATOM
      1 O           4.5981   -1.7500    0.0000 O.3     1  UNL1       -0.4585
      2 O           6.3301   -1.7500    0.0000 O.2     1  UNL1       -0.2511
      3 C           4.5981    0.2500    0.0000 C.3     1  UNL1       -0.0009
      4 C           4.5981    2.2500    0.0000 C.3     1  UNL1       -0.0078
      5 C           3.7320    1.7500    0.0000 C.3     1  UNL1       -0.0112
      6 C           3.7320    0.7500    0.0000 C.3     1  UNL1       -0.0393
      7 C           5.4641    0.7500    0.0000 C.3     1  UNL1       -0.0458
      8 C           5.4641    1.7500    0.0000 C.3     1  UNL1       -0.0433
      9 C           4.5981   -0.7500    0.0000 C.3     1  UNL1        0.1108
     10 C           4.0981    3.1160    0.0000 C.3     1  UNL1       -0.0556
     11 C           2.8660    2.2500    0.0000 C.2     1  UNL1       -0.0758
     12 C           5.0981    3.1160    0.0000 C.2     1  UNL1       -0.0846
     13 C           5.5981   -0.7500    0.0000 C.3     1  UNL1       -0.0248
     14 C           3.5981   -0.7500    0.0000 C.3     1  UNL1       -0.0248
     15 C           2.0000    1.7500    0.0000 C.3     1  UNL1       -0.0437
     16 C           2.8660    3.2500    0.0000 C.2     1  UNL1       -0.0994
     17 C           6.0981    3.1160    0.0000 C.2     1  UNL1       -0.1021
     18 C           5.4641   -2.2500    0.0000 C.2     1  UNL1        0.3045
     19 C           5.4641   -3.2500    0.0000 C.3     1  UNL1        0.0333
     20 H           5.3342   -0.1750    0.0000 H       1  UNL1        0.0339
     21 H           3.7320    2.3700    0.0000 H       1  UNL1        0.0354
     22 H           3.1215    0.8577    0.0000 H       1  UNL1        0.0275
     23 H           3.5200    0.1674    0.0000 H       1  UNL1        0.0275
     24 H           5.6762    0.1674    0.0000 H       1  UNL1        0.0269
     25 H           6.0747    0.8577    0.0000 H       1  UNL1        0.0269
     26 H           6.0747    1.6423    0.0000 H       1  UNL1        0.0274
     27 H           5.6762    2.3326    0.0000 H       1  UNL1        0.0274
     28 H           4.6350    3.4260    0.0000 H       1  UNL1        0.0238
     29 H           3.7881    3.6530    0.0000 H       1  UNL1        0.0238
     30 H           3.5611    2.8060    0.0000 H       1  UNL1        0.0238
     31 H           4.7881    3.6530    0.0000 H       1  UNL1        0.0572
     32 H           5.5981   -1.3700    0.0000 H       1  UNL1        0.0268
     33 H           6.2181   -0.7500    0.0000 H       1  UNL1        0.0268
     34 H           5.5981   -0.1300    0.0000 H       1  UNL1        0.0268
     35 H           3.5981   -0.1300    0.0000 H       1  UNL1        0.0268
     36 H           2.9781   -0.7500    0.0000 H       1  UNL1        0.0268
     37 H           3.5981   -1.3700    0.0000 H       1  UNL1        0.0268
     38 H           1.6900    2.2869    0.0000 H       1  UNL1        0.0274
     39 H           1.4631    1.4400    0.0000 H       1  UNL1        0.0274
     40 H           2.3100    1.2131    0.0000 H       1  UNL1        0.0274
     41 H           3.4030    3.5600    0.0000 H       1  UNL1        0.0534
     42 H           2.3291    3.5600    0.0000 H       1  UNL1        0.0534
     43 H           6.4081    2.5791    0.0000 H       1  UNL1        0.0532
     44 H           6.4081    3.6530    0.0000 H       1  UNL1        0.0532
     45 H           4.8441   -3.2500    0.0000 H       1  UNL1        0.0342
     46 H           5.4641   -3.8700    0.0000 H       1  UNL1        0.0342
     47 H           6.0841   -3.2500    0.0000 H       1  UNL1        0.0342
@<TRIPOS>BOND
     1     1     9    1
     2     1    18    1
     3     2    18    2
     4     3     6    1
     5     3     7    1
     6     3     9    1
     7     3    20    1
     8     4     5    1
     9     4     8    1
    10     4    10    1
    11     4    12    1
    12     5     6    1
    13     5    11    1
    14     5    21    1
    15     6    22    1
    16     6    23    1
    17     7     8    1
    18     7    24    1
    19     7    25    1
    20     8    26    1
    21     8    27    1
    22     9    13    1
    23     9    14    1
    24    10    28    1
    25    10    29    1
    26    10    30    1
    27    11    15    1
    28    11    16    2
    29    12    17    2
    30    12    31    1
    31    13    32    1
    32    13    33    1
    33    13    34    1
    34    14    35    1
    35    14    36    1
    36    14    37    1
    37    15    38    1
    38    15    39    1
    39    15    40    1
    40    16    41    1
    41    16    42    1
    42    17    43    1
    43    17    44    1
    44    18    19    1
    45    19    45    1
    46    19    46    1
    47    19    47    1
