@<TRIPOS>MOLECULE
IMPHY012335
 49 53 0 0 0
SMALL
GASTEIGER

@<TRIPOS>ATOM
      1 O           5.9131    0.8566    0.0000 O.3     1  UNL1       -0.3723
      2 O           3.1708    0.0086    0.0000 O.3     1  UNL1       -0.3888
      3 O           3.0296   -0.8310    0.0000 O.2     1  UNL1       -0.2721
      4 O           3.7019   -2.9001    0.0000 O.3     1  UNL1       -0.2756
      5 N           2.7364    1.2083    0.0000 N.3     1  UNL1       -0.3098
      6 N           4.2896   -2.0911    0.0000 N.am    1  UNL1       -0.1476
      7 C           3.7399    2.4666    0.0000 C.3     1  UNL1        0.0092
      8 C           4.2896    1.6384    0.0000 C.3     1  UNL1        0.0046
      9 C           3.6662    0.8566    0.0000 C.3     1  UNL1        0.0145
     10 C           4.7896   -0.5522    0.0000 C.3     1  UNL1        0.1059
     11 C           5.6906   -0.1184    0.0000 C.3     1  UNL1        0.1029
     12 C           3.9690    0.6110    0.0000 C.3     1  UNL1        0.0872
     13 C           2.7818    2.2013    0.0000 C.3     1  UNL1        0.0133
     14 C           3.8887   -0.1184    0.0000 C.3     1  UNL1       -0.0165
     15 C           5.2896    1.6384    0.0000 C.3     1  UNL1        0.0528
     16 C           5.5987   -1.1400    0.0000 C.ar    1  UNL1       -0.0061
     17 C           2.0000    2.8248    0.0000 C.3     1  UNL1       -0.0400
     18 C           3.9806   -1.1400    0.0000 C.2     1  UNL1        0.2560
     19 C           5.2896   -2.0911    0.0000 C.ar    1  UNL1        0.0686
     20 C           2.1490    3.8136    0.0000 C.3     1  UNL1       -0.0639
     21 C           6.6141   -0.9078    0.0000 C.ar    1  UNL1       -0.0556
     22 C           5.9746   -2.8758    0.0000 C.ar    1  UNL1       -0.0377
     23 C           7.3170   -1.6765    0.0000 C.ar    1  UNL1       -0.0614
     24 C           6.9951   -2.6671    0.0000 C.ar    1  UNL1       -0.0599
     25 C           4.1086   -3.8136    0.0000 C.3     1  UNL1        0.0629
     26 H           3.9567    3.0474    0.0000 H       1  UNL1        0.0346
     27 H           4.5586    1.0798    0.0000 H       1  UNL1        0.0342
     28 H           3.1987    0.4493    0.0000 H       1  UNL1        0.0464
     29 H           6.1754   -0.5049    0.0000 H       1  UNL1        0.0636
     30 H           3.3981    0.8528    0.0000 H       1  UNL1        0.0623
     31 H           2.2172    1.9452    0.0000 H       1  UNL1        0.0464
     32 H           3.2687   -0.1184    0.0000 H       1  UNL1        0.0294
     33 H           3.7507   -0.7228    0.0000 H       1  UNL1        0.0294
     34 H           2.2184    0.8676    0.0000 H       1  UNL1        0.1225
     35 H           5.8482    1.9074    0.0000 H       1  UNL1        0.0563
     36 H           5.1517    2.2429    0.0000 H       1  UNL1        0.0563
     37 H           1.4123    3.0223    0.0000 H       1  UNL1        0.0278
     38 H           1.7035    2.2803    0.0000 H       1  UNL1        0.0278
     39 H           2.5999    0.2505    0.0000 H       1  UNL1        0.2099
     40 H           2.7621    3.7212    0.0000 H       1  UNL1        0.0230
     41 H           2.2414    4.4267    0.0000 H       1  UNL1        0.0230
     42 H           1.5360    3.9060    0.0000 H       1  UNL1        0.0230
     43 H           6.7988   -0.3159    0.0000 H       1  UNL1        0.0621
     44 H           5.7762   -3.4632    0.0000 H       1  UNL1        0.0637
     45 H           7.9230   -1.5452    0.0000 H       1  UNL1        0.0618
     46 H           7.4082   -3.1295    0.0000 H       1  UNL1        0.0618
     47 H           3.5422   -4.0658    0.0000 H       1  UNL1        0.0547
     48 H           4.3608   -4.3800    0.0000 H       1  UNL1        0.0547
     49 H           4.6750   -3.5615    0.0000 H       1  UNL1        0.0547
@<TRIPOS>BOND
     1     1    11    1
     2     1    15    1
     3     2    12    1
     4     2    39    1
     5     3    18    2
     6     4     6    1
     7     4    25    1
     8     5     9    1
     9     5    13    1
    10     5    34    1
    11     6    18   am
    12     6    19    1
    13     7     8    1
    14     7    12    1
    15     7    13    1
    16     7    26    1
    17     8     9    1
    18     8    15    1
    19     8    27    1
    20     9    14    1
    21     9    28    1
    22    10    11    1
    23    10    14    1
    24    10    16    1
    25    10    18    1
    26    11    12    1
    27    11    29    1
    28    12    30    1
    29    13    17    1
    30    13    31    1
    31    14    32    1
    32    14    33    1
    33    15    35    1
    34    15    36    1
    35    16    19   ar
    36    16    21   ar
    37    17    20    1
    38    17    37    1
    39    17    38    1
    40    19    22   ar
    41    20    40    1
    42    20    41    1
    43    20    42    1
    44    21    23   ar
    45    21    43    1
    46    22    24   ar
    47    22    44    1
    48    23    24   ar
    49    23    45    1
    50    24    46    1
    51    25    47    1
    52    25    48    1
    53    25    49    1
