@<TRIPOS>MOLECULE
IMPHY008710
 69 75 0 0 0
SMALL
GASTEIGER

@<TRIPOS>ATOM
      1 O           6.1024   -3.8473    0.0000 O.3     1  UNL1       -0.4944
      2 N           6.9654    3.6044    0.0000 N.3     1  UNL1       -0.2931
      3 N           4.5124    2.4869    0.0000 N.ar    1  UNL1       -0.3564
      4 N           6.2345    0.1651    0.0000 N.3     1  UNL1       -0.3078
      5 N           8.4842   -1.4442    0.0000 N.ar    1  UNL1       -0.3564
      6 C           7.6200    1.6413    0.0000 C.3     1  UNL1       -0.0301
      7 C           6.2962    2.8612    0.0000 C.3     1  UNL1        0.0512
      8 C           6.6028    1.8658    0.0000 C.3     1  UNL1       -0.0284
      9 C           8.3170    2.4154    0.0000 C.3     1  UNL1       -0.0074
     10 C           7.9875    3.4036    0.0000 C.3     1  UNL1        0.0060
     11 C           7.9253    0.6891    0.0000 C.3     1  UNL1       -0.0286
     12 C           5.3181    3.0692    0.0000 C.ar    1  UNL1        0.0376
     13 C           6.6564    4.5554    0.0000 C.3     1  UNL1        0.0036
     14 C           7.2533   -0.0515    0.0000 C.3     1  UNL1        0.0486
     15 C           5.0091    4.0202    0.0000 C.ar    1  UNL1       -0.0164
     16 C           5.6782    4.7634    0.0000 C.3     1  UNL1       -0.0125
     17 C           9.2959    2.2113    0.0000 C.2     1  UNL1       -0.0865
     18 C           7.5676   -1.0446    0.0000 C.ar    1  UNL1        0.0375
     19 C           4.0150    4.0176    0.0000 C.ar    1  UNL1        0.0032
     20 C           6.9042   -1.7928    0.0000 C.ar    1  UNL1       -0.0129
     21 C           3.7086    3.0719    0.0000 C.ar    1  UNL1        0.0470
     22 C           5.5435   -0.6143    0.0000 C.3     1  UNL1        0.0005
     23 C           5.8806   -1.5999    0.0000 C.3     1  UNL1       -0.0127
     24 C           7.4108   -2.6550    0.0000 C.ar    1  UNL1        0.0448
     25 C           8.3874   -2.4396    0.0000 C.ar    1  UNL1        0.0505
     26 C           3.3334    4.7971    0.0000 C.ar    1  UNL1       -0.0523
     27 C           9.9622    2.9570    0.0000 C.2     1  UNL1       -0.1023
     28 C           2.6994    2.8402    0.0000 C.ar    1  UNL1       -0.0378
     29 C           7.0813   -3.6431    0.0000 C.ar    1  UNL1        0.1295
     30 C           2.3191    4.5888    0.0000 C.ar    1  UNL1       -0.0611
     31 C           2.0000    3.6037    0.0000 C.ar    1  UNL1       -0.0598
     32 C           9.1021   -3.1973    0.0000 C.ar    1  UNL1       -0.0376
     33 C           7.7783   -4.4172    0.0000 C.ar    1  UNL1       -0.0192
     34 C           8.7955   -4.1928    0.0000 C.ar    1  UNL1       -0.0563
     35 C           5.7897   -4.7971    0.0000 C.3     1  UNL1        0.0788
     36 H           8.2262    1.5113    0.0000 H       1  UNL1        0.0308
     37 H           5.7226    2.2340    0.0000 H       1  UNL1        0.0527
     38 H           5.9878    1.7874    0.0000 H       1  UNL1        0.0287
     39 H           6.5748    1.2464    0.0000 H       1  UNL1        0.0287
     40 H           8.5097    1.8261    0.0000 H       1  UNL1        0.0358
     41 H           8.6005    3.4962    0.0000 H       1  UNL1        0.0432
     42 H           8.0011    4.0234    0.0000 H       1  UNL1        0.0432
     43 H           8.3052    0.1991    0.0000 H       1  UNL1        0.0287
     44 H           8.4739    0.9781    0.0000 H       1  UNL1        0.0287
     45 H           7.2703    4.6417    0.0000 H       1  UNL1        0.0430
     46 H           6.6780    5.1751    0.0000 H       1  UNL1        0.0430
     47 H           7.0629    0.5386    0.0000 H       1  UNL1        0.0525
     48 H           5.9105    5.3382    0.0000 H       1  UNL1        0.0326
     49 H           5.1524    5.0919    0.0000 H       1  UNL1        0.0326
     50 H           9.4898    1.6224    0.0000 H       1  UNL1        0.0570
     51 H           4.5113    1.8669    0.0000 H       1  UNL1        0.1656
     52 H           6.0406    0.7540    0.0000 H       1  UNL1        0.1226
     53 H           5.1568   -0.1297    0.0000 H       1  UNL1        0.0427
     54 H           4.9998   -0.9124    0.0000 H       1  UNL1        0.0427
     55 H           5.2683   -1.6972    0.0000 H       1  UNL1        0.0326
     56 H           5.8717   -2.2198    0.0000 H       1  UNL1        0.0326
     57 H           9.0188   -1.1301    0.0000 H       1  UNL1        0.1656
     58 H           3.5313    5.3847    0.0000 H       1  UNL1        0.0624
     59 H          10.5691    2.8304    0.0000 H       1  UNL1        0.0532
     60 H           9.7683    3.5459    0.0000 H       1  UNL1        0.0532
     61 H           2.5152    2.2482    0.0000 H       1  UNL1        0.0638
     62 H           1.9056    5.0508    0.0000 H       1  UNL1        0.0618
     63 H           1.3942    3.4720    0.0000 H       1  UNL1        0.0618
     64 H           9.7059   -3.0567    0.0000 H       1  UNL1        0.0638
     65 H           7.5890   -5.0076    0.0000 H       1  UNL1        0.0654
     66 H           9.2157   -4.6487    0.0000 H       1  UNL1        0.0619
     67 H           5.2008   -4.6033    0.0000 H       1  UNL1        0.0660
     68 H           5.5959   -5.3860    0.0000 H       1  UNL1        0.0660
     69 H           6.3786   -4.9910    0.0000 H       1  UNL1        0.0660
@<TRIPOS>BOND
     1     1    29    1
     2     1    35    1
     3     2     7    1
     4     2    10    1
     5     2    13    1
     6     3    12   ar
     7     3    21   ar
     8     3    51    1
     9     4    14    1
    10     4    22    1
    11     4    52    1
    12     5    18   ar
    13     5    25   ar
    14     5    57    1
    15     6     8    1
    16     6     9    1
    17     6    11    1
    18     6    36    1
    19     7     8    1
    20     7    12    1
    21     7    37    1
    22     8    38    1
    23     8    39    1
    24     9    10    1
    25     9    17    1
    26     9    40    1
    27    10    41    1
    28    10    42    1
    29    14    11    1
    30    11    43    1
    31    11    44    1
    32    12    15   ar
    33    13    16    1
    34    13    45    1
    35    13    46    1
    36    14    18    1
    37    14    47    1
    38    15    16    1
    39    15    19   ar
    40    16    48    1
    41    16    49    1
    42    17    27    2
    43    17    50    1
    44    18    20   ar
    45    19    21   ar
    46    19    26   ar
    47    20    23    1
    48    20    24   ar
    49    21    28   ar
    50    22    23    1
    51    22    53    1
    52    22    54    1
    53    23    55    1
    54    23    56    1
    55    24    25   ar
    56    24    29   ar
    57    25    32   ar
    58    26    30   ar
    59    26    58    1
    60    27    59    1
    61    27    60    1
    62    28    31   ar
    63    28    61    1
    64    29    33   ar
    65    30    31   ar
    66    30    62    1
    67    31    63    1
    68    32    34   ar
    69    32    64    1
    70    33    34   ar
    71    33    65    1
    72    34    66    1
    73    35    67    1
    74    35    68    1
    75    35    69    1
