@<TRIPOS>MOLECULE
IMPHY007663
 42 46 0 0 0
SMALL
GASTEIGER

@<TRIPOS>ATOM
      1 O           4.7821   -1.8140    0.0000 O.3     1  UNL1       -0.4853
      2 O           2.0643   -2.1144    0.0000 O.3     1  UNL1       -0.3855
      3 O           8.1625   -0.2754    0.0000 O.2     1  UNL1       -0.4537
      4 O           8.3717    2.6964    0.0000 O.2     1  UNL1       -0.4214
      5 O           6.6397    2.6964    0.0000 O.2     1  UNL1       -0.2444
      6 O          11.9019    2.7205    0.0000 O.3     1  UNL1       -0.5066
      7 C           3.8907   -1.2994    0.0000 C.3     1  UNL1        0.1322
      8 C           2.9775   -1.7069    0.0000 C.3     1  UNL1        0.0974
      9 C           4.1029   -0.2921    0.0000 C.3     1  UNL1        0.0157
     10 C           5.1262   -0.1810    0.0000 C.ar    1  UNL1       -0.0013
     11 C           5.5482   -1.1266    0.0000 C.ar    1  UNL1        0.1279
     12 C           5.7406    0.6525    0.0000 C.ar    1  UNL1       -0.0434
     13 C           6.7687    0.5293    0.0000 C.ar    1  UNL1        0.0353
     14 C           3.3850   -2.6201    0.0000 C.3     1  UNL1       -0.0328
     15 C           2.5699   -0.7937    0.0000 C.3     1  UNL1       -0.0328
     16 C           7.1738   -0.3785    0.0000 C.ar    1  UNL1        0.1400
     17 C           6.5789   -1.2260    0.0000 C.ar    1  UNL1        0.0233
     18 C           7.5057    1.1964    0.0000 C.ar    1  UNL1        0.1128
     19 C           8.3717    0.6964    0.0000 C.ar    1  UNL1        0.1538
     20 C           9.2378    1.1964    0.0000 C.ar    1  UNL1        0.0607
     21 C           7.5057    2.1964    0.0000 C.ar    1  UNL1        0.3488
     22 C           9.2378    2.1964    0.0000 C.ar    1  UNL1        0.1461
     23 C          10.1317    0.6617    0.0000 C.ar    1  UNL1       -0.0441
     24 C          10.1317    2.7311    0.0000 C.ar    1  UNL1        0.0230
     25 C          11.0378    1.1756    0.0000 C.ar    1  UNL1       -0.0193
     26 C          11.0378    2.2172    0.0000 C.ar    1  UNL1        0.1204
     27 H           3.8585   -1.9185    0.0000 H       1  UNL1        0.0765
     28 H           4.1011    0.3279    0.0000 H       1  UNL1        0.0351
     29 H           3.4862   -0.2288    0.0000 H       1  UNL1        0.0351
     30 H           5.4945    1.2216    0.0000 H       1  UNL1        0.0629
     31 H           2.8188   -2.8727    0.0000 H       1  UNL1        0.0258
     32 H           3.6377   -3.1862    0.0000 H       1  UNL1        0.0258
     33 H           3.1361   -0.5410    0.0000 H       1  UNL1        0.0258
     34 H           2.3173   -0.2275    0.0000 H       1  UNL1        0.0258
     35 H           2.0038   -1.0463    0.0000 H       1  UNL1        0.0258
     36 H           3.9512   -2.3674    0.0000 H       1  UNL1        0.0258
     37 H           6.8381   -1.7892    0.0000 H       1  UNL1        0.0691
     38 H           2.0000   -2.7311    0.0000 H       1  UNL1        0.2103
     39 H          10.1245    0.0418    0.0000 H       1  UNL1        0.0627
     40 H          10.1245    3.3510    0.0000 H       1  UNL1        0.0691
     41 H          11.5735    0.8635    0.0000 H       1  UNL1        0.0654
     42 H          12.4400    2.4126    0.0000 H       1  UNL1        0.2921
@<TRIPOS>BOND
     1     1     7    1
     2     1    11    1
     3     2     8    1
     4     2    38    1
     5     3    16   ar
     6     3    19   ar
     7     4    21   ar
     8     4    22   ar
     9     5    21    2
    10     6    26    1
    11     6    42    1
    12     7     8    1
    13     7     9    1
    14     7    27    1
    15     8    14    1
    16     8    15    1
    17     9    10    1
    18     9    28    1
    19     9    29    1
    20    10    11   ar
    21    10    12   ar
    22    11    17   ar
    23    12    13   ar
    24    12    30    1
    25    13    16   ar
    26    13    18   ar
    27    14    31    1
    28    14    32    1
    29    14    36    1
    30    15    33    1
    31    15    34    1
    32    15    35    1
    33    16    17   ar
    34    17    37    1
    35    18    19   ar
    36    18    21   ar
    37    19    20   ar
    38    20    22   ar
    39    20    23   ar
    40    22    24   ar
    41    23    25   ar
    42    23    39    1
    43    24    26   ar
    44    24    40    1
    45    25    26   ar
    46    25    41    1
