@<TRIPOS>MOLECULE
IMPHY013234
 157 165 0 0 0
SMALL
GASTEIGER

@<TRIPOS>ATOM
      1 O           7.5233    5.7663    0.0000 O.3     1  UNL1       -0.3449
      2 O           7.2176   -1.6642    0.0000 O.3     1  UNL1       -0.3906
      3 O           8.5991   -3.6307    0.0000 O.3     1  UNL1       -0.4306
      4 O           7.5991   -2.6307    0.0000 O.2     1  UNL1       -0.2500
      5 O           7.8438    7.4685    0.0000 O.3     1  UNL1       -0.3315
      6 O           6.8671   -3.6307    0.0000 O.3     1  UNL1       -0.3360
      7 O           9.4888    5.3963    0.0000 O.3     1  UNL1       -0.3841
      8 O          10.7920    6.9134    0.0000 O.3     1  UNL1       -0.3864
      9 O           8.5991   -5.6307    0.0000 O.3     1  UNL1       -0.4492
     10 O          10.1297    8.8006    0.0000 O.3     1  UNL1       -0.3860
     11 O           6.8671   -6.6307    0.0000 O.3     1  UNL1       -0.3389
     12 O           5.1350   -5.6307    0.0000 O.3     1  UNL1       -0.3868
     13 O           7.1815    9.3556    0.0000 O.3     1  UNL1       -0.4788
     14 O           8.8158    9.9292    0.0000 O.2     1  UNL1       -0.2480
     15 O           5.1350   -6.6307    0.0000 O.3     1  UNL1       -0.3405
     16 O           9.4651   -4.1307    0.0000 O.2     1  UNL1       -0.2456
     17 O           6.8671   -8.6307    0.0000 O.3     1  UNL1       -0.3841
     18 O           5.1350   -9.6307    0.0000 O.3     1  UNL1       -0.3864
     19 O           3.4030   -8.6307    0.0000 O.3     1  UNL1       -0.3865
     20 O           2.5369   -7.1307    0.0000 O.3     1  UNL1       -0.3924
     21 O          14.6613   -7.1307    0.0000 O.3     1  UNL1       -0.5068
     22 C           8.2294    1.0329    0.0000 C.3     1  UNL1       -0.0193
     23 C           8.8781    1.7940    0.0000 C.3     1  UNL1       -0.0257
     24 C           8.5446    2.7808    0.0000 C.3     1  UNL1       -0.0250
     25 C           8.5642    0.0906    0.0000 C.3     1  UNL1       -0.0028
     26 C           7.5217    2.9774    0.0000 C.3     1  UNL1       -0.0278
     27 C           7.2023    1.2059    0.0000 C.3     1  UNL1       -0.0463
     28 C           6.8460    2.1847    0.0000 C.3     1  UNL1       -0.0486
     29 C           7.1506    3.9970    0.0000 C.3     1  UNL1       -0.0052
     30 C           9.5477   -0.0906    0.0000 C.2     1  UNL1       -0.0627
     31 C           9.9114   -1.0667    0.0000 C.3     1  UNL1       -0.0007
     32 C           9.8616    1.6127    0.0000 C.3     1  UNL1       -0.0306
     33 C           9.2673    3.5900    0.0000 C.3     1  UNL1       -0.0447
     34 C           7.8764   -0.6916    0.0000 C.3     1  UNL1       -0.0162
     35 C           9.2419   -1.8646    0.0000 C.3     1  UNL1        0.1000
     36 C           8.2175   -1.6758    0.0000 C.3     1  UNL1        0.0723
     37 C           7.3596    0.5396    0.0000 C.3     1  UNL1       -0.0585
     38 C           7.8544    4.8227    0.0000 C.3     1  UNL1        0.0672
     39 C          10.1963    0.6704    0.0000 C.2     1  UNL1       -0.0836
     40 C           9.5266    2.5919    0.0000 C.3     1  UNL1       -0.0590
     41 C           8.9199    4.6179    0.0000 C.3     1  UNL1       -0.0255
     42 C           7.5781   -0.0755    0.0000 C.3     1  UNL1       -0.0552
     43 C          10.9827   -1.2386    0.0000 C.3     1  UNL1       -0.0402
     44 C           9.5972   -2.8898    0.0000 C.3     1  UNL1       -0.0338
     45 C          11.3617   -2.2553    0.0000 C.3     1  UNL1       -0.0343
     46 C           6.3870    4.6427    0.0000 C.3     1  UNL1       -0.0572
     47 C           6.2096    3.6586    0.0000 C.3     1  UNL1       -0.0572
     48 C          10.6643   -3.0864    0.0000 C.3     1  UNL1       -0.0467
     49 C           8.5991   -2.6307    0.0000 C.2     1  UNL1        0.3187
     50 C          12.3000   -1.9096    0.0000 C.3     1  UNL1       -0.0598
     51 C          12.1302   -2.8951    0.0000 C.3     1  UNL1       -0.0598
     52 C           8.1749    6.5249    0.0000 C.3     1  UNL1        0.1888
     53 C           9.1576    6.3399    0.0000 C.3     1  UNL1        0.1341
     54 C           7.7331   -4.1307    0.0000 C.3     1  UNL1        0.2447
     55 C           9.8092    7.0984    0.0000 C.3     1  UNL1        0.1145
     56 C           8.4954    8.2270    0.0000 C.3     1  UNL1        0.1859
     57 C           7.7331   -5.1307    0.0000 C.3     1  UNL1        0.1936
     58 C           9.4781    8.0420    0.0000 C.3     1  UNL1        0.1201
     59 C           6.8671   -5.6307    0.0000 C.3     1  UNL1        0.1324
     60 C           6.0010   -4.1307    0.0000 C.3     1  UNL1        0.0803
     61 C           6.0010   -5.1307    0.0000 C.3     1  UNL1        0.1084
     62 C           8.1642    9.1706    0.0000 C.2     1  UNL1        0.3367
     63 C           9.4651   -5.1307    0.0000 C.2     1  UNL1        0.3325
     64 C           6.0010   -7.1307    0.0000 C.3     1  UNL1        0.1885
     65 C           6.0010   -8.1307    0.0000 C.3     1  UNL1        0.1341
     66 C          10.3312   -5.6307    0.0000 C.2     1  UNL1        0.0231
     67 C           5.1350   -8.6307    0.0000 C.3     1  UNL1        0.1141
     68 C           4.2690   -7.1307    0.0000 C.3     1  UNL1        0.1130
     69 C           4.2690   -8.1307    0.0000 C.3     1  UNL1        0.1119
     70 C          11.1972   -5.1307    0.0000 C.2     1  UNL1       -0.0478
     71 C           3.4030   -6.6307    0.0000 C.3     1  UNL1        0.0730
     72 C          12.0632   -5.6307    0.0000 C.ar    1  UNL1       -0.0246
     73 C          12.0632   -6.6307    0.0000 C.ar    1  UNL1       -0.0511
     74 C          12.9292   -5.1307    0.0000 C.ar    1  UNL1       -0.0511
     75 C          12.9292   -7.1307    0.0000 C.ar    1  UNL1       -0.0196
     76 C          13.7953   -5.6307    0.0000 C.ar    1  UNL1       -0.0196
     77 C          13.7953   -6.6307    0.0000 C.ar    1  UNL1        0.1169
     78 H           9.2839    2.2627    0.0000 H       1  UNL1        0.0315
     79 H           6.9115    3.0874    0.0000 H       1  UNL1        0.0312
     80 H           6.5920    1.0966    0.0000 H       1  UNL1        0.0271
     81 H           7.2055    0.5859    0.0000 H       1  UNL1        0.0271
     82 H           6.4499    2.6617    0.0000 H       1  UNL1        0.0268
     83 H           6.3083    1.8760    0.0000 H       1  UNL1        0.0268
     84 H          10.3045   -0.5872    0.0000 H       1  UNL1        0.0357
     85 H          10.4730    1.7157    0.0000 H       1  UNL1        0.0310
     86 H           9.8663    2.2327    0.0000 H       1  UNL1        0.0310
     87 H           9.6523    3.1040    0.0000 H       1  UNL1        0.0271
     88 H           9.8120    3.8861    0.0000 H       1  UNL1        0.0271
     89 H           7.4877   -0.2086    0.0000 H       1  UNL1        0.0299
     90 H           7.3340   -0.9919    0.0000 H       1  UNL1        0.0299
     91 H           8.1575   -2.2929    0.0000 H       1  UNL1        0.0605
     92 H           7.0538    1.0789    0.0000 H       1  UNL1        0.0235
     93 H           6.8203    0.2338    0.0000 H       1  UNL1        0.0235
     94 H           7.6654    0.0003    0.0000 H       1  UNL1        0.0235
     95 H           8.2593    5.2923    0.0000 H       1  UNL1        0.0602
     96 H          10.8061    0.5581    0.0000 H       1  UNL1        0.0572
     97 H           9.4096    1.9831    0.0000 H       1  UNL1        0.0235
     98 H          10.1355    2.4749    0.0000 H       1  UNL1        0.0235
     99 H           9.6437    3.2008    0.0000 H       1  UNL1        0.0235
    100 H           9.5326    4.7130    0.0000 H       1  UNL1        0.0290
    101 H           8.9311    5.2378    0.0000 H       1  UNL1        0.0290
    102 H           7.4752    0.5359    0.0000 H       1  UNL1        0.0238
    103 H           6.9667   -0.1784    0.0000 H       1  UNL1        0.0238
    104 H           7.6810   -0.6868    0.0000 H       1  UNL1        0.0238
    105 H          11.5922   -1.1247    0.0000 H       1  UNL1        0.0276
    106 H          10.9748   -0.6186    0.0000 H       1  UNL1        0.0276
    107 H           8.9853   -2.9896    0.0000 H       1  UNL1        0.0277
    108 H           9.5909   -3.5097    0.0000 H       1  UNL1        0.0277
    109 H           6.7874    5.1161    0.0000 H       1  UNL1        0.0236
    110 H           5.9136    5.0431    0.0000 H       1  UNL1        0.0236
    111 H           5.9867    4.1693    0.0000 H       1  UNL1        0.0236
    112 H           5.9998    4.2420    0.0000 H       1  UNL1        0.0236
    113 H           5.6262    3.4488    0.0000 H       1  UNL1        0.0236
    114 H           6.4194    3.0752    0.0000 H       1  UNL1        0.0236
    115 H          10.4492   -3.6679    0.0000 H       1  UNL1        0.0271
    116 H          11.2004   -3.3978    0.0000 H       1  UNL1        0.0271
    117 H           6.9139   -1.1236    0.0000 H       1  UNL1        0.2098
    118 H          12.5143   -2.4914    0.0000 H       1  UNL1        0.0235
    119 H          12.8818   -1.6953    0.0000 H       1  UNL1        0.0235
    120 H          12.0857   -1.3278    0.0000 H       1  UNL1        0.0235
    121 H          11.7335   -3.3716    0.0000 H       1  UNL1        0.0235
    122 H          12.6067   -3.2918    0.0000 H       1  UNL1        0.0235
    123 H          12.5269   -2.4186    0.0000 H       1  UNL1        0.0235
    124 H           7.5656    6.6396    0.0000 H       1  UNL1        0.0938
    125 H           9.7669    6.2251    0.0000 H       1  UNL1        0.0671
    126 H           8.2700   -4.4407    0.0000 H       1  UNL1        0.1097
    127 H          10.2132    7.5687    0.0000 H       1  UNL1        0.0648
    128 H           7.8861    8.3417    0.0000 H       1  UNL1        0.0741
    129 H           7.7331   -5.7507    0.0000 H       1  UNL1        0.0825
    130 H           9.2728    8.6270    0.0000 H       1  UNL1        0.0652
    131 H          10.0980    5.2816    0.0000 H       1  UNL1        0.2101
    132 H           6.3301   -5.9407    0.0000 H       1  UNL1        0.0663
    133 H           5.7890   -3.5480    0.0000 H       1  UNL1        0.0588
    134 H           5.3905   -4.2383    0.0000 H       1  UNL1        0.0588
    135 H           5.4641   -4.8207    0.0000 H       1  UNL1        0.0644
    136 H          11.1960    7.3837    0.0000 H       1  UNL1        0.2100
    137 H          10.7390    8.6858    0.0000 H       1  UNL1        0.2100
    138 H           4.5981   -5.3207    0.0000 H       1  UNL1        0.2100
    139 H           6.0010   -6.5107    0.0000 H       1  UNL1        0.0938
    140 H           6.9762    9.9407    0.0000 H       1  UNL1        0.2951
    141 H           6.0010   -8.7507    0.0000 H       1  UNL1        0.0671
    142 H          10.3312   -6.2507    0.0000 H       1  UNL1        0.0689
    143 H           4.5981   -8.9407    0.0000 H       1  UNL1        0.0648
    144 H           4.2690   -6.5107    0.0000 H       1  UNL1        0.0647
    145 H           4.2690   -8.7507    0.0000 H       1  UNL1        0.0647
    146 H           7.4040   -8.3207    0.0000 H       1  UNL1        0.2101
    147 H          11.1972   -4.5107    0.0000 H       1  UNL1        0.0626
    148 H           3.8015   -6.1557    0.0000 H       1  UNL1        0.0584
    149 H           3.0044   -6.1557    0.0000 H       1  UNL1        0.0584
    150 H           5.6720   -9.9407    0.0000 H       1  UNL1        0.2100
    151 H           3.4030   -9.2507    0.0000 H       1  UNL1        0.2100
    152 H           2.0000   -6.8207    0.0000 H       1  UNL1        0.2095
    153 H          11.5263   -6.9407    0.0000 H       1  UNL1        0.0625
    154 H          12.9292   -4.5107    0.0000 H       1  UNL1        0.0625
    155 H          12.9292   -7.7507    0.0000 H       1  UNL1        0.0654
    156 H          14.3322   -5.3207    0.0000 H       1  UNL1        0.0654
    157 H          15.1982   -6.8207    0.0000 H       1  UNL1        0.2921
@<TRIPOS>BOND
     1     1    38    1
     2     1    52    1
     3     2    36    1
     4     2   117    1
     5     3    49    1
     6     3    54    1
     7     4    49    2
     8     5    52    1
     9     5    56    1
    10     6    54    1
    11     6    60    1
    12     7    53    1
    13     7   131    1
    14     8    55    1
    15     8   136    1
    16     9    57    1
    17     9    63    1
    18    10    58    1
    19    10   137    1
    20    11    59    1
    21    11    64    1
    22    12    61    1
    23    12   138    1
    24    13    62    1
    25    13   140    1
    26    14    62    2
    27    15    64    1
    28    15    68    1
    29    16    63    2
    30    17    65    1
    31    17   146    1
    32    18    67    1
    33    18   150    1
    34    19    69    1
    35    19   151    1
    36    20    71    1
    37    20   152    1
    38    21    77    1
    39    21   157    1
    40    22    23    1
    41    22    25    1
    42    22    27    1
    43    22    37    1
    44    23    24    1
    45    23    32    1
    46    23    78    1
    47    24    26    1
    48    24    33    1
    49    24    40    1
    50    25    30    1
    51    25    34    1
    52    25    42    1
    53    26    28    1
    54    26    29    1
    55    26    79    1
    56    27    28    1
    57    27    80    1
    58    27    81    1
    59    28    82    1
    60    28    83    1
    61    29    38    1
    62    29    46    1
    63    29    47    1
    64    30    31    1
    65    30    39    2
    66    31    35    1
    67    31    43    1
    68    31    84    1
    69    32    39    1
    70    32    85    1
    71    32    86    1
    72    33    41    1
    73    33    87    1
    74    33    88    1
    75    34    36    1
    76    34    89    1
    77    34    90    1
    78    35    36    1
    79    35    44    1
    80    35    49    1
    81    36    91    1
    82    37    92    1
    83    37    93    1
    84    37    94    1
    85    38    41    1
    86    38    95    1
    87    39    96    1
    88    40    97    1
    89    40    98    1
    90    40    99    1
    91    41   100    1
    92    41   101    1
    93    42   102    1
    94    42   103    1
    95    42   104    1
    96    43    45    1
    97    43   105    1
    98    43   106    1
    99    44    48    1
   100    44   107    1
   101    44   108    1
   102    45    48    1
   103    45    50    1
   104    45    51    1
   105    46   109    1
   106    46   110    1
   107    46   111    1
   108    47   112    1
   109    47   113    1
   110    47   114    1
   111    48   115    1
   112    48   116    1
   113    50   118    1
   114    50   119    1
   115    50   120    1
   116    51   121    1
   117    51   122    1
   118    51   123    1
   119    52    53    1
   120    52   124    1
   121    53    55    1
   122    53   125    1
   123    54    57    1
   124    54   126    1
   125    55    58    1
   126    55   127    1
   127    56    58    1
   128    56    62    1
   129    56   128    1
   130    57    59    1
   131    57   129    1
   132    58   130    1
   133    59    61    1
   134    59   132    1
   135    60    61    1
   136    60   133    1
   137    60   134    1
   138    61   135    1
   139    63    66    1
   140    64    65    1
   141    64   139    1
   142    65    67    1
   143    65   141    1
   144    66    70    2
   145    66   142    1
   146    67    69    1
   147    67   143    1
   148    68    69    1
   149    68    71    1
   150    68   144    1
   151    69   145    1
   152    70    72    1
   153    70   147    1
   154    71   148    1
   155    71   149    1
   156    72    73   ar
   157    72    74   ar
   158    73    75   ar
   159    73   153    1
   160    74    76   ar
   161    74   154    1
   162    75    77   ar
   163    75   155    1
   164    76    77   ar
   165    76   156    1
