@<TRIPOS>MOLECULE
IMPHY012982
 130 134 0 0 0
SMALL
GASTEIGER

@<TRIPOS>ATOM
      1 O          12.0740   -0.1277    0.0000 O.3     1  UNL1       -0.4608
      2 O          11.2137    1.3757    0.0000 O.2     1  UNL1       -0.2508
      3 C          16.6010    1.4247    0.0000 C.3     1  UNL1       -0.0194
      4 C          15.7350    1.9247    0.0000 C.3     1  UNL1       -0.0257
      5 C          14.8250    1.4178    0.0000 C.3     1  UNL1       -0.0249
      6 C          17.4671    1.9247    0.0000 C.3     1  UNL1       -0.0051
      7 C          14.8170    0.3762    0.0000 C.3     1  UNL1       -0.0268
      8 C          16.6171    0.3832    0.0000 C.3     1  UNL1       -0.0463
      9 C          17.4671    2.9247    0.0000 C.2     1  UNL1       -0.0632
     10 C          18.3610    3.4593    0.0000 C.3     1  UNL1       -0.0111
     11 C          15.7191   -0.1446    0.0000 C.3     1  UNL1       -0.0486
     12 C          13.8816   -0.1735    0.0000 C.3     1  UNL1        0.0055
     13 C          19.2671    2.9455    0.0000 C.3     1  UNL1       -0.0253
     14 C          18.3610    1.3900    0.0000 C.3     1  UNL1       -0.0429
     15 C          15.7350    2.9247    0.0000 C.3     1  UNL1       -0.0306
     16 C          13.8982    1.9819    0.0000 C.3     1  UNL1       -0.0437
     17 C          19.2671    1.9039    0.0000 C.3     1  UNL1       -0.0463
     18 C          17.2438    0.6586    0.0000 C.3     1  UNL1       -0.0585
     19 C          16.6010    3.4247    0.0000 C.2     1  UNL1       -0.0836
     20 C          12.9419    0.3690    0.0000 C.3     1  UNL1        0.1084
     21 C          14.8327    2.4178    0.0000 C.3     1  UNL1       -0.0590
     22 C          18.3359    4.5441    0.0000 C.3     1  UNL1       -0.0343
     23 C          12.9503    1.4540    0.0000 C.3     1  UNL1       -0.0146
     24 C          17.8092    0.9850    0.0000 C.3     1  UNL1       -0.0553
     25 C          20.2109    3.4807    0.0000 C.3     1  UNL1       -0.0468
     26 C          19.2671    5.1010    0.0000 C.3     1  UNL1       -0.0407
     27 C          20.2109    4.5657    0.0000 C.3     1  UNL1       -0.0497
     28 C          13.3849   -1.0414    0.0000 C.3     1  UNL1       -0.0562
     29 C          14.3849   -1.0376    0.0000 C.3     1  UNL1       -0.0562
     30 C          20.1369    2.4522    0.0000 C.3     1  UNL1       -0.0590
     31 C          17.4604    5.0273    0.0000 C.3     1  UNL1       -0.0616
     32 C          19.2555    6.1009    0.0000 C.3     1  UNL1       -0.0622
     33 C          11.2099    0.3757    0.0000 C.2     1  UNL1        0.3074
     34 C          10.3419   -0.1210    0.0000 C.3     1  UNL1        0.0449
     35 C           9.4778    0.3824    0.0000 C.3     1  UNL1       -0.0430
     36 C           8.6099   -0.1143    0.0000 C.3     1  UNL1       -0.0526
     37 C           7.7458    0.3890    0.0000 C.3     1  UNL1       -0.0530
     38 C           6.8779   -0.1076    0.0000 C.3     1  UNL1       -0.0528
     39 C           6.0138    0.3957    0.0000 C.3     1  UNL1       -0.0496
     40 C           5.1458   -0.1009    0.0000 C.3     1  UNL1       -0.0348
     41 C           4.2817    0.4024    0.0000 C.2     1  UNL1       -0.0876
     42 C           3.4138   -0.0943    0.0000 C.2     1  UNL1       -0.0842
     43 C           3.4099   -1.0943    0.0000 C.3     1  UNL1       -0.0165
     44 C           2.5420   -1.5909    0.0000 C.2     1  UNL1       -0.0842
     45 C           2.5381   -2.5909    0.0000 C.2     1  UNL1       -0.0876
     46 C           3.4022   -3.0942    0.0000 C.3     1  UNL1       -0.0348
     47 C           3.3984   -4.0942    0.0000 C.3     1  UNL1       -0.0496
     48 C           4.2625   -4.5976    0.0000 C.3     1  UNL1       -0.0530
     49 C           4.2586   -5.5976    0.0000 C.3     1  UNL1       -0.0559
     50 C           5.1227   -6.1009    0.0000 C.3     1  UNL1       -0.0653
     51 H          16.4711    2.3497    0.0000 H       1  UNL1        0.0315
     52 H          14.8203   -0.4738    0.0000 H       1  UNL1        0.0312
     53 H          16.8351   -0.1972    0.0000 H       1  UNL1        0.0271
     54 H          17.2262    0.4987    0.0000 H       1  UNL1        0.0271
     55 H          17.6168    3.8701    0.0000 H       1  UNL1        0.0354
     56 H          15.3217   -0.6205    0.0000 H       1  UNL1        0.0268
     57 H          16.1200   -0.6175    0.0000 H       1  UNL1        0.0268
     58 H          17.9564    0.9202    0.0000 H       1  UNL1        0.0274
     59 H          18.7546    0.9110    0.0000 H       1  UNL1        0.0274
     60 H          15.5230    3.5073    0.0000 H       1  UNL1        0.0310
     61 H          15.1244    2.8170    0.0000 H       1  UNL1        0.0310
     62 H          14.3064    2.4486    0.0000 H       1  UNL1        0.0272
     63 H          13.5082    2.4640    0.0000 H       1  UNL1        0.0272
     64 H          19.4761    1.3202    0.0000 H       1  UNL1        0.0271
     65 H          19.8779    2.0100    0.0000 H       1  UNL1        0.0271
     66 H          16.7689    0.2601    0.0000 H       1  UNL1        0.0235
     67 H          17.6423    0.1837    0.0000 H       1  UNL1        0.0235
     68 H          17.7188    1.0572    0.0000 H       1  UNL1        0.0235
     69 H          16.6010    4.0447    0.0000 H       1  UNL1        0.0572
     70 H          12.4068    0.6821    0.0000 H       1  UNL1        0.0739
     71 H          15.4527    2.4130    0.0000 H       1  UNL1        0.0235
     72 H          14.8375    3.0378    0.0000 H       1  UNL1        0.0235
     73 H          14.2127    2.4226    0.0000 H       1  UNL1        0.0235
     74 H          17.8057    4.2227    0.0000 H       1  UNL1        0.0307
     75 H          12.7457    2.0393    0.0000 H       1  UNL1        0.0301
     76 H          12.3386    1.3526    0.0000 H       1  UNL1        0.0301
     77 H          17.2266    0.7729    0.0000 H       1  UNL1        0.0238
     78 H          18.0213    0.4024    0.0000 H       1  UNL1        0.0238
     79 H          18.3918    1.1971    0.0000 H       1  UNL1        0.0238
     80 H          20.4199    2.8970    0.0000 H       1  UNL1        0.0271
     81 H          20.8217    3.5868    0.0000 H       1  UNL1        0.0271
     82 H          19.8010    5.4161    0.0000 H       1  UNL1        0.0301
     83 H          20.8217    4.4596    0.0000 H       1  UNL1        0.0268
     84 H          20.4199    5.1494    0.0000 H       1  UNL1        0.0268
     85 H          12.8468   -0.7335    0.0000 H       1  UNL1        0.0236
     86 H          13.0770   -1.5796    0.0000 H       1  UNL1        0.0236
     87 H          13.9230   -1.3494    0.0000 H       1  UNL1        0.0236
     88 H          13.8491   -1.3496    0.0000 H       1  UNL1        0.0236
     89 H          14.6970   -1.5733    0.0000 H       1  UNL1        0.0236
     90 H          14.9206   -0.7255    0.0000 H       1  UNL1        0.0236
     91 H          19.8311    1.9129    0.0000 H       1  UNL1        0.0235
     92 H          20.6762    2.1463    0.0000 H       1  UNL1        0.0235
     93 H          20.4428    2.9915    0.0000 H       1  UNL1        0.0235
     94 H          17.7600    5.5701    0.0000 H       1  UNL1        0.0233
     95 H          16.9176    5.3269    0.0000 H       1  UNL1        0.0233
     96 H          17.1608    4.4845    0.0000 H       1  UNL1        0.0233
     97 H          19.8755    6.1081    0.0000 H       1  UNL1        0.0233
     98 H          19.2483    6.7209    0.0000 H       1  UNL1        0.0233
     99 H          18.6355    6.0937    0.0000 H       1  UNL1        0.0233
    100 H           9.9416   -0.5944    0.0000 H       1  UNL1        0.0377
    101 H          10.7386   -0.5975    0.0000 H       1  UNL1        0.0377
    102 H           9.8782    0.8558    0.0000 H       1  UNL1        0.0270
    103 H           9.0811    0.8588    0.0000 H       1  UNL1        0.0270
    104 H           8.2095   -0.5877    0.0000 H       1  UNL1        0.0265
    105 H           9.0066   -0.5908    0.0000 H       1  UNL1        0.0265
    106 H           8.1462    0.8624    0.0000 H       1  UNL1        0.0265
    107 H           7.3491    0.8655    0.0000 H       1  UNL1        0.0265
    108 H           6.4775   -0.5810    0.0000 H       1  UNL1        0.0265
    109 H           7.2746   -0.5841    0.0000 H       1  UNL1        0.0265
    110 H           6.4141    0.8691    0.0000 H       1  UNL1        0.0268
    111 H           5.6171    0.8722    0.0000 H       1  UNL1        0.0268
    112 H           4.7455   -0.5744    0.0000 H       1  UNL1        0.0307
    113 H           5.5425   -0.5774    0.0000 H       1  UNL1        0.0307
    114 H           4.2841    1.0224    0.0000 H       1  UNL1        0.0569
    115 H           2.8780    0.2178    0.0000 H       1  UNL1        0.0572
    116 H           3.6197   -1.6777    0.0000 H       1  UNL1        0.0350
    117 H           4.0209   -0.9890    0.0000 H       1  UNL1        0.0350
    118 H           2.0062   -1.2788    0.0000 H       1  UNL1        0.0572
    119 H           2.0000   -2.8988    0.0000 H       1  UNL1        0.0569
    120 H           4.0124   -3.2043    0.0000 H       1  UNL1        0.0307
    121 H           3.6165   -2.5125    0.0000 H       1  UNL1        0.0307
    122 H           2.7882   -3.9842    0.0000 H       1  UNL1        0.0268
    123 H           3.1841   -4.6760    0.0000 H       1  UNL1        0.0268
    124 H           4.8726   -4.7076    0.0000 H       1  UNL1        0.0265
    125 H           4.4768   -4.0158    0.0000 H       1  UNL1        0.0265
    126 H           3.6484   -5.4876    0.0000 H       1  UNL1        0.0263
    127 H           4.0443   -6.1794    0.0000 H       1  UNL1        0.0263
    128 H           4.8106   -6.6366    0.0000 H       1  UNL1        0.0230
    129 H           5.6584   -6.4130    0.0000 H       1  UNL1        0.0230
    130 H           5.4348   -5.5652    0.0000 H       1  UNL1        0.0230
@<TRIPOS>BOND
     1    20     1    1
     2     1    33    1
     3     2    33    2
     4     3     4    1
     5     3     6    1
     6     3     8    1
     7     3    18    1
     8     4     5    1
     9     4    15    1
    10     4    51    1
    11     5     7    1
    12     5    16    1
    13     5    21    1
    14     6     9    1
    15     6    14    1
    16     6    24    1
    17     7    11    1
    18     7    12    1
    19     7    52    1
    20     8    11    1
    21     8    53    1
    22     8    54    1
    23     9    10    1
    24     9    19    2
    25    10    13    1
    26    10    22    1
    27    10    55    1
    28    11    56    1
    29    11    57    1
    30    12    20    1
    31    12    28    1
    32    12    29    1
    33    13    17    1
    34    13    25    1
    35    13    30    1
    36    14    17    1
    37    14    58    1
    38    14    59    1
    39    15    19    1
    40    15    60    1
    41    15    61    1
    42    16    23    1
    43    16    62    1
    44    16    63    1
    45    17    64    1
    46    17    65    1
    47    18    66    1
    48    18    67    1
    49    18    68    1
    50    19    69    1
    51    20    23    1
    52    20    70    1
    53    21    71    1
    54    21    72    1
    55    21    73    1
    56    22    26    1
    57    22    31    1
    58    22    74    1
    59    23    75    1
    60    23    76    1
    61    24    77    1
    62    24    78    1
    63    24    79    1
    64    25    27    1
    65    25    80    1
    66    25    81    1
    67    26    27    1
    68    26    32    1
    69    26    82    1
    70    27    83    1
    71    27    84    1
    72    28    85    1
    73    28    86    1
    74    28    87    1
    75    29    88    1
    76    29    89    1
    77    29    90    1
    78    30    91    1
    79    30    92    1
    80    30    93    1
    81    31    94    1
    82    31    95    1
    83    31    96    1
    84    32    97    1
    85    32    98    1
    86    32    99    1
    87    33    34    1
    88    34    35    1
    89    34   100    1
    90    34   101    1
    91    35    36    1
    92    35   102    1
    93    35   103    1
    94    36    37    1
    95    36   104    1
    96    36   105    1
    97    37    38    1
    98    37   106    1
    99    37   107    1
   100    38    39    1
   101    38   108    1
   102    38   109    1
   103    39    40    1
   104    39   110    1
   105    39   111    1
   106    40    41    1
   107    40   112    1
   108    40   113    1
   109    41    42    2
   110    41   114    1
   111    42    43    1
   112    42   115    1
   113    43    44    1
   114    43   116    1
   115    43   117    1
   116    44    45    2
   117    44   118    1
   118    45    46    1
   119    45   119    1
   120    46    47    1
   121    46   120    1
   122    46   121    1
   123    47    48    1
   124    47   122    1
   125    47   123    1
   126    48    49    1
   127    48   124    1
   128    48   125    1
   129    49    50    1
   130    49   126    1
   131    49   127    1
   132    50   128    1
   133    50   129    1
   134    50   130    1
