@<TRIPOS>MOLECULE
IMPHY017130
 17 16 0 0 0
SMALL
GASTEIGER

@<TRIPOS>ATOM
      1 O           3.7320   -0.7500    0.0000 O.2     1  UNL1       -0.2927
      2 C           5.4641    0.2500    0.0000 C.3     1  UNL1       -0.0489
      3 C           4.5981    0.7500    0.0000 C.3     1  UNL1        0.0096
      4 C           6.3301    0.7500    0.0000 C.3     1  UNL1       -0.0649
      5 C           3.7320    0.2500    0.0000 C.2     1  UNL1        0.1555
      6 C           2.8660    0.7500    0.0000 C.2     1  UNL1       -0.0263
      7 C           2.0000    0.2500    0.0000 C.2     1  UNL1       -0.0954
      8 H           5.0656   -0.2249    0.0000 H       1  UNL1        0.0267
      9 H           5.8626   -0.2249    0.0000 H       1  UNL1        0.0267
     10 H           4.9966    1.2250    0.0000 H       1  UNL1        0.0345
     11 H           4.1996    1.2250    0.0000 H       1  UNL1        0.0345
     12 H           6.6401    0.2131    0.0000 H       1  UNL1        0.0230
     13 H           6.8671    1.0600    0.0000 H       1  UNL1        0.0230
     14 H           6.0201    1.2869    0.0000 H       1  UNL1        0.0230
     15 H           2.8660    1.3700    0.0000 H       1  UNL1        0.0646
     16 H           1.4631    0.5600    0.0000 H       1  UNL1        0.0536
     17 H           2.0000   -0.3700    0.0000 H       1  UNL1        0.0536
@<TRIPOS>BOND
     1     1     5    2
     2     2     3    1
     3     2     4    1
     4     2     8    1
     5     2     9    1
     6     3     5    1
     7     3    10    1
     8     3    11    1
     9     4    12    1
    10     4    13    1
    11     4    14    1
    12     5     6    1
    13     6     7    2
    14     6    15    1
    15     7    16    1
    16     7    17    1
