@<TRIPOS>MOLECULE
IMPHY001453
 61 60 0 0 0
SMALL
GASTEIGER

@<TRIPOS>ATOM
      1 O          15.8564    0.0950    0.0000 O.3     1  UNL1       -0.4619
      2 O          14.9904   -1.4050    0.0000 O.2     1  UNL1       -0.2509
      3 O          17.5885    1.0950    0.0000 O.3     1  UNL1       -0.3861
      4 O          19.3205    0.0950    0.0000 O.3     1  UNL1       -0.3923
      5 C           8.9282    0.0950    0.0000 C.3     1  UNL1       -0.0531
      6 C           8.0622   -0.4050    0.0000 C.3     1  UNL1       -0.0531
      7 C           9.7942   -0.4050    0.0000 C.3     1  UNL1       -0.0531
      8 C           7.1962    0.0950    0.0000 C.3     1  UNL1       -0.0531
      9 C           6.3301   -0.4050    0.0000 C.3     1  UNL1       -0.0531
     10 C          10.6603    0.0950    0.0000 C.3     1  UNL1       -0.0531
     11 C           5.4641    0.0950    0.0000 C.3     1  UNL1       -0.0531
     12 C          11.5263   -0.4050    0.0000 C.3     1  UNL1       -0.0530
     13 C           4.5981   -0.4050    0.0000 C.3     1  UNL1       -0.0531
     14 C          12.3923    0.0950    0.0000 C.3     1  UNL1       -0.0526
     15 C           3.7320    0.0950    0.0000 C.3     1  UNL1       -0.0533
     16 C          13.2583   -0.4050    0.0000 C.3     1  UNL1       -0.0430
     17 C           2.8660   -0.4050    0.0000 C.3     1  UNL1       -0.0559
     18 C          14.1244    0.0950    0.0000 C.3     1  UNL1        0.0449
     19 C           2.0000    0.0950    0.0000 C.3     1  UNL1       -0.0653
     20 C          14.9904   -0.4050    0.0000 C.2     1  UNL1        0.3072
     21 C          16.7224   -0.4050    0.0000 C.3     1  UNL1        0.1204
     22 C          17.5885    0.0950    0.0000 C.3     1  UNL1        0.1121
     23 C          18.4545   -0.4050    0.0000 C.3     1  UNL1        0.0733
     24 H           9.3267    0.5699    0.0000 H       1  UNL1        0.0265
     25 H           8.5297    0.5699    0.0000 H       1  UNL1        0.0265
     26 H           7.6636   -0.8799    0.0000 H       1  UNL1        0.0265
     27 H           8.4607   -0.8799    0.0000 H       1  UNL1        0.0265
     28 H           9.3957   -0.8799    0.0000 H       1  UNL1        0.0265
     29 H          10.1928   -0.8799    0.0000 H       1  UNL1        0.0265
     30 H           7.5947    0.5699    0.0000 H       1  UNL1        0.0265
     31 H           6.7976    0.5699    0.0000 H       1  UNL1        0.0265
     32 H           5.9316   -0.8799    0.0000 H       1  UNL1        0.0265
     33 H           6.7287   -0.8799    0.0000 H       1  UNL1        0.0265
     34 H          11.0588    0.5699    0.0000 H       1  UNL1        0.0265
     35 H          10.2617    0.5699    0.0000 H       1  UNL1        0.0265
     36 H           5.8626    0.5699    0.0000 H       1  UNL1        0.0265
     37 H           5.0656    0.5699    0.0000 H       1  UNL1        0.0265
     38 H          11.1278   -0.8799    0.0000 H       1  UNL1        0.0265
     39 H          11.9248   -0.8799    0.0000 H       1  UNL1        0.0265
     40 H           4.1996   -0.8799    0.0000 H       1  UNL1        0.0265
     41 H           4.9966   -0.8799    0.0000 H       1  UNL1        0.0265
     42 H          12.7908    0.5699    0.0000 H       1  UNL1        0.0265
     43 H          11.9938    0.5699    0.0000 H       1  UNL1        0.0265
     44 H           4.1306    0.5699    0.0000 H       1  UNL1        0.0265
     45 H           3.3335    0.5699    0.0000 H       1  UNL1        0.0265
     46 H          12.8598   -0.8799    0.0000 H       1  UNL1        0.0270
     47 H          13.6569   -0.8799    0.0000 H       1  UNL1        0.0270
     48 H           2.4675   -0.8799    0.0000 H       1  UNL1        0.0263
     49 H           3.2646   -0.8799    0.0000 H       1  UNL1        0.0263
     50 H          14.5229    0.5699    0.0000 H       1  UNL1        0.0377
     51 H          13.7258    0.5699    0.0000 H       1  UNL1        0.0377
     52 H           2.3100    0.6319    0.0000 H       1  UNL1        0.0230
     53 H           1.4631    0.4050    0.0000 H       1  UNL1        0.0230
     54 H           1.6900   -0.4419    0.0000 H       1  UNL1        0.0230
     55 H          16.3239   -0.8799    0.0000 H       1  UNL1        0.0724
     56 H          17.1210   -0.8799    0.0000 H       1  UNL1        0.0724
     57 H          18.3246    0.5200    0.0000 H       1  UNL1        0.0650
     58 H          18.0560   -0.8799    0.0000 H       1  UNL1        0.0584
     59 H          18.8530   -0.8799    0.0000 H       1  UNL1        0.0584
     60 H          18.1254    1.4050    0.0000 H       1  UNL1        0.2100
     61 H          19.8574   -0.2150    0.0000 H       1  UNL1        0.2095
@<TRIPOS>BOND
     1     1    20    1
     2     1    21    1
     3     2    20    2
     4     3    22    1
     5     3    60    1
     6     4    23    1
     7     4    61    1
     8     5     6    1
     9     5     7    1
    10     5    24    1
    11     5    25    1
    12     6     8    1
    13     6    26    1
    14     6    27    1
    15     7    10    1
    16     7    28    1
    17     7    29    1
    18     8     9    1
    19     8    30    1
    20     8    31    1
    21     9    11    1
    22     9    32    1
    23     9    33    1
    24    10    12    1
    25    10    34    1
    26    10    35    1
    27    11    13    1
    28    11    36    1
    29    11    37    1
    30    12    14    1
    31    12    38    1
    32    12    39    1
    33    13    15    1
    34    13    40    1
    35    13    41    1
    36    14    16    1
    37    14    42    1
    38    14    43    1
    39    15    17    1
    40    15    44    1
    41    15    45    1
    42    16    18    1
    43    16    46    1
    44    16    47    1
    45    17    19    1
    46    17    48    1
    47    17    49    1
    48    18    20    1
    49    18    50    1
    50    18    51    1
    51    19    52    1
    52    19    53    1
    53    19    54    1
    54    21    22    1
    55    21    55    1
    56    21    56    1
    57    22    23    1
    58    22    57    1
    59    23    58    1
    60    23    59    1
