@<TRIPOS>MOLECULE
IMPHY005184
 48 50 0 0 0
SMALL
GASTEIGER

@<TRIPOS>ATOM
      1 O           2.0000   -1.8435    0.0000 O.2     1  UNL1       -0.2968
      2 O           7.2622   -1.8193    0.0000 O.2     1  UNL1       -0.2920
      3 C           4.6641   -0.3193    0.0000 C.3     1  UNL1       -0.0019
      4 C           4.6641   -1.3193    0.0000 C.3     1  UNL1       -0.0128
      5 C           3.7702   -1.8540    0.0000 C.3     1  UNL1        0.0274
      6 C           3.7702    0.2153    0.0000 C.3     1  UNL1       -0.0366
      7 C           5.5301   -1.8193    0.0000 C.3     1  UNL1        0.0150
      8 C           5.5301    0.1807    0.0000 C.ar    1  UNL1       -0.0307
      9 C           2.8641   -0.2985    0.0000 C.3     1  UNL1        0.0072
     10 C           2.8641   -1.3402    0.0000 C.2     1  UNL1        0.1393
     11 C           4.6641    0.6807    0.0000 C.3     1  UNL1       -0.0552
     12 C           3.2802   -2.7258    0.0000 C.3     1  UNL1       -0.0528
     13 C           4.2801   -2.7142    0.0000 C.3     1  UNL1       -0.0528
     14 C           6.3961   -0.3193    0.0000 C.ar    1  UNL1        0.0214
     15 C           6.3961   -1.3193    0.0000 C.2     1  UNL1        0.1638
     16 C           5.5141    1.2222    0.0000 C.ar    1  UNL1       -0.0571
     17 C           7.3062    0.1875    0.0000 C.ar    1  UNL1       -0.0476
     18 C           7.3142    1.2291    0.0000 C.ar    1  UNL1       -0.0441
     19 C           6.4121    1.7499    0.0000 C.ar    1  UNL1       -0.0580
     20 C           8.1821    1.7258    0.0000 C.3     1  UNL1       -0.0215
     21 C           8.1860    2.7258    0.0000 C.3     1  UNL1       -0.0586
     22 C           9.0462    1.2224    0.0000 C.3     1  UNL1       -0.0586
     23 H           4.6706   -2.1693    0.0000 H       1  UNL1        0.0323
     24 H           4.1748    0.6851    0.0000 H       1  UNL1        0.0278
     25 H           3.3765    0.6943    0.0000 H       1  UNL1        0.0278
     26 H           5.1316   -2.2943    0.0000 H       1  UNL1        0.0348
     27 H           5.9286   -2.2943    0.0000 H       1  UNL1        0.0348
     28 H           2.6550    0.2852    0.0000 H       1  UNL1        0.0342
     29 H           2.2532   -0.4046    0.0000 H       1  UNL1        0.0342
     30 H           5.2841    0.6807    0.0000 H       1  UNL1        0.0238
     31 H           4.6641    1.3007    0.0000 H       1  UNL1        0.0238
     32 H           4.0441    0.6807    0.0000 H       1  UNL1        0.0238
     33 H           2.7397   -2.4220    0.0000 H       1  UNL1        0.0239
     34 H           2.9764   -3.2662    0.0000 H       1  UNL1        0.0239
     35 H           3.8207   -3.0295    0.0000 H       1  UNL1        0.0239
     36 H           3.7468   -3.0304    0.0000 H       1  UNL1        0.0239
     37 H           4.5963   -3.2475    0.0000 H       1  UNL1        0.0239
     38 H           4.8134   -2.3980    0.0000 H       1  UNL1        0.0239
     39 H           4.9736    1.5259    0.0000 H       1  UNL1        0.0621
     40 H           7.8395   -0.1287    0.0000 H       1  UNL1        0.0627
     41 H           6.4097    2.3699    0.0000 H       1  UNL1        0.0620
     42 H           8.7203    2.0337    0.0000 H       1  UNL1        0.0343
     43 H           8.7342    0.6867    0.0000 H       1  UNL1        0.0235
     44 H           9.5820    0.9104    0.0000 H       1  UNL1        0.0235
     45 H           9.3583    1.7582    0.0000 H       1  UNL1        0.0235
     46 H           8.8060    2.7234    0.0000 H       1  UNL1        0.0235
     47 H           8.1884    3.3458    0.0000 H       1  UNL1        0.0235
     48 H           7.5660    2.7281    0.0000 H       1  UNL1        0.0235
@<TRIPOS>BOND
     1     1    10    2
     2     2    15    2
     3     3     4    1
     4     3     6    1
     5     3     8    1
     6     3    11    1
     7     4     5    1
     8     4     7    1
     9     4    23    1
    10     5    10    1
    11     5    12    1
    12     5    13    1
    13     6     9    1
    14     6    24    1
    15     6    25    1
    16     7    15    1
    17     7    26    1
    18     7    27    1
    19     8    14   ar
    20     8    16   ar
    21     9    10    1
    22     9    28    1
    23     9    29    1
    24    11    30    1
    25    11    31    1
    26    11    32    1
    27    12    33    1
    28    12    34    1
    29    12    35    1
    30    13    36    1
    31    13    37    1
    32    13    38    1
    33    14    15    1
    34    14    17   ar
    35    16    19   ar
    36    16    39    1
    37    17    18   ar
    38    17    40    1
    39    18    19   ar
    40    18    20    1
    41    19    41    1
    42    20    21    1
    43    20    22    1
    44    20    42    1
    45    21    46    1
    46    21    47    1
    47    21    48    1
    48    22    43    1
    49    22    44    1
    50    22    45    1
