@<TRIPOS>MOLECULE
IMPHY005034
 22 22 0 0 0
SMALL
GASTEIGER

@<TRIPOS>ATOM
      1 O           5.1350   -1.0000    0.0000 O.2     1  UNL1       -0.4680
      2 O           6.8671    1.0000    0.0000 O.3     1  UNL1       -0.3846
      3 O           5.1350    2.0000    0.0000 O.3     1  UNL1       -0.3849
      4 O           6.8671   -2.0000    0.0000 O.3     1  UNL1       -0.4780
      5 O           7.7331   -0.5000    0.0000 O.2     1  UNL1       -0.2467
      6 O           2.5369   -0.5000    0.0000 O.3     1  UNL1       -0.4750
      7 O           3.4030   -2.0000    0.0000 O.2     1  UNL1       -0.2417
      8 C           6.0010    0.5000    0.0000 C.3     1  UNL1        0.1319
      9 C           6.0010   -0.5000    0.0000 C.3     1  UNL1        0.2243
     10 C           5.1350    1.0000    0.0000 C.3     1  UNL1        0.1071
     11 C           4.2690    0.5000    0.0000 C.2     1  UNL1       -0.0043
     12 C           4.2690   -0.5000    0.0000 C.2     1  UNL1        0.2038
     13 C           6.8671   -1.0000    0.0000 C.2     1  UNL1        0.3486
     14 C           3.4030   -1.0000    0.0000 C.2     1  UNL1        0.3717
     15 H           6.7372    0.0750    0.0000 H       1  UNL1        0.0665
     16 H           6.0010   -1.3500    0.0000 H       1  UNL1        0.0880
     17 H           5.8711    1.4250    0.0000 H       1  UNL1        0.0666
     18 H           3.7320    0.8100    0.0000 H       1  UNL1        0.0637
     19 H           6.8671    1.6200    0.0000 H       1  UNL1        0.2101
     20 H           4.5981    2.3100    0.0000 H       1  UNL1        0.2103
     21 H           7.4040   -2.3100    0.0000 H       1  UNL1        0.2952
     22 H           2.0000   -0.8100    0.0000 H       1  UNL1        0.2955
@<TRIPOS>BOND
     1     1     9    1
     2     1    12    1
     3     2     8    1
     4     2    19    1
     5     3    10    1
     6     3    20    1
     7     4    13    1
     8     4    21    1
     9     5    13    2
    10     6    14    1
    11     6    22    1
    12     7    14    2
    13     8     9    1
    14     8    10    1
    15     8    15    1
    16     9    13    1
    17     9    16    1
    18    10    11    1
    19    10    17    1
    20    11    12    2
    21    11    18    1
    22    12    14    1
