@<TRIPOS>MOLECULE
IMPHY014523
 46 50 0 0 0
SMALL
GASTEIGER

@<TRIPOS>ATOM
      1 O           8.0899    1.9584    0.0000 O.3     1  UNL1       -0.4641
      2 O           5.6219   -0.2799    0.0000 O.3     1  UNL1       -0.3863
      3 O           6.5021    2.7674    0.0000 O.2     1  UNL1       -0.2504
      4 O          11.1342   -0.7757    0.0000 O.3     1  UNL1       -0.4526
      5 O           2.4035    1.6262    0.0000 O.3     1  UNL1       -0.4526
      6 O           7.5899   -2.5805    0.0000 O.3     1  UNL1       -0.5064
      7 O          11.1342   -2.3852    0.0000 O.3     1  UNL1       -0.4525
      8 O           2.7382    3.2005    0.0000 O.3     1  UNL1       -0.4526
      9 C           7.5899    0.4195    0.0000 C.3     1  UNL1        0.0130
     10 C           6.7808    1.0073    0.0000 C.3     1  UNL1        0.0925
     11 C           8.3989    1.0073    0.0000 C.3     1  UNL1        0.0964
     12 C           7.5899   -0.5805    0.0000 C.3     1  UNL1       -0.0173
     13 C           5.8298    0.6983    0.0000 C.3     1  UNL1        0.0935
     14 C           7.0899    1.9584    0.0000 C.2     1  UNL1        0.3134
     15 C           8.4559   -1.0805    0.0000 C.ar    1  UNL1       -0.0019
     16 C           5.0866    1.3674    0.0000 C.ar    1  UNL1       -0.0147
     17 C           9.3219   -0.5805    0.0000 C.ar    1  UNL1       -0.0095
     18 C           8.4559   -2.0805    0.0000 C.ar    1  UNL1        0.1237
     19 C           4.1356    1.0584    0.0000 C.ar    1  UNL1       -0.0105
     20 C           5.2946    2.3456    0.0000 C.ar    1  UNL1       -0.0524
     21 C          10.1879   -1.0805    0.0000 C.ar    1  UNL1        0.1667
     22 C           3.3924    1.7275    0.0000 C.ar    1  UNL1        0.1666
     23 C           9.3219   -2.5805    0.0000 C.ar    1  UNL1        0.0256
     24 C          10.1879   -2.0805    0.0000 C.ar    1  UNL1        0.1697
     25 C           4.5514    3.0147    0.0000 C.ar    1  UNL1       -0.0158
     26 C           3.6004    2.7057    0.0000 C.ar    1  UNL1        0.1662
     27 C          11.7178   -1.5805    0.0000 C.3     1  UNL1        0.2332
     28 C           2.0000    2.5347    0.0000 C.3     1  UNL1        0.2332
     29 H           8.1423    0.1380    0.0000 H       1  UNL1        0.0346
     30 H           6.3424    1.4457    0.0000 H       1  UNL1        0.0446
     31 H           8.7089    0.4704    0.0000 H       1  UNL1        0.0700
     32 H           8.9653    1.2595    0.0000 H       1  UNL1        0.0700
     33 H           6.9793   -0.4728    0.0000 H       1  UNL1        0.0318
     34 H           7.3778   -1.1631    0.0000 H       1  UNL1        0.0318
     35 H           5.2401    0.5067    0.0000 H       1  UNL1        0.0652
     36 H           5.0322   -0.4715    0.0000 H       1  UNL1        0.2103
     37 H           9.3219    0.0395    0.0000 H       1  UNL1        0.0659
     38 H           4.0067    0.4519    0.0000 H       1  UNL1        0.0659
     39 H           5.8842    2.5372    0.0000 H       1  UNL1        0.0622
     40 H           9.3219   -3.2005    0.0000 H       1  UNL1        0.0692
     41 H           4.6803    3.6212    0.0000 H       1  UNL1        0.0655
     42 H          12.1786   -1.9952    0.0000 H       1  UNL1        0.1166
     43 H          12.1786   -1.1658    0.0000 H       1  UNL1        0.1166
     44 H           7.5899   -3.2005    0.0000 H       1  UNL1        0.2921
     45 H           1.6354    3.0362    0.0000 H       1  UNL1        0.1166
     46 H           1.4630    2.2248    0.0000 H       1  UNL1        0.1166
@<TRIPOS>BOND
     1     1    11    1
     2     1    14    1
     3     2    13    1
     4     2    36    1
     5     3    14    2
     6     4    21    1
     7     4    27    1
     8     5    22    1
     9     5    28    1
    10     6    18    1
    11     6    44    1
    12     7    24    1
    13     7    27    1
    14     8    26    1
    15     8    28    1
    16     9    10    1
    17     9    11    1
    18     9    12    1
    19     9    29    1
    20    10    13    1
    21    10    14    1
    22    10    30    1
    23    11    31    1
    24    11    32    1
    25    12    15    1
    26    12    33    1
    27    12    34    1
    28    13    16    1
    29    13    35    1
    30    15    17   ar
    31    15    18   ar
    32    16    19   ar
    33    16    20   ar
    34    17    21   ar
    35    17    37    1
    36    18    23   ar
    37    19    22   ar
    38    19    38    1
    39    20    25   ar
    40    20    39    1
    41    21    24   ar
    42    22    26   ar
    43    23    24   ar
    44    23    40    1
    45    25    26   ar
    46    25    41    1
    47    27    42    1
    48    27    43    1
    49    28    45    1
    50    28    46    1
