@<TRIPOS>MOLECULE
IMPHY010937
 54 53 0 0 0
SMALL
GASTEIGER

@<TRIPOS>ATOM
      1 O           6.3301   -0.1900    0.0000 O.3     1  UNL1       -0.2300
      2 O          17.5885    1.3100    0.0000 O.3     1  UNL1       -0.4806
      3 O           5.4641   -0.6900    0.0000 O.3     1  UNL1       -0.2496
      4 O          16.7224   -0.1900    0.0000 O.2     1  UNL1       -0.2510
      5 C          13.2583    0.8100    0.0000 C.3     1  UNL1       -0.0530
      6 C          12.3923    1.3100    0.0000 C.3     1  UNL1       -0.0528
      7 C          14.1244    1.3100    0.0000 C.3     1  UNL1       -0.0526
      8 C          11.5263    0.8100    0.0000 C.3     1  UNL1       -0.0496
      9 C           4.5981    0.8100    0.0000 C.3     1  UNL1       -0.0503
     10 C          14.9904    0.8100    0.0000 C.3     1  UNL1       -0.0430
     11 C           5.4641    1.3100    0.0000 C.3     1  UNL1       -0.0200
     12 C           3.7320    1.3100    0.0000 C.3     1  UNL1       -0.0532
     13 C          10.6603    1.3100    0.0000 C.3     1  UNL1       -0.0345
     14 C           6.3301    0.8100    0.0000 C.3     1  UNL1        0.1119
     15 C           2.8660    0.8100    0.0000 C.3     1  UNL1       -0.0559
     16 C          15.8564    1.3100    0.0000 C.3     1  UNL1        0.0448
     17 C           9.7942    0.8100    0.0000 C.2     1  UNL1       -0.0840
     18 C           7.1962    1.3100    0.0000 C.2     1  UNL1       -0.0526
     19 C           2.0000    1.3100    0.0000 C.3     1  UNL1       -0.0653
     20 C           8.9282    1.3100    0.0000 C.2     1  UNL1       -0.0659
     21 C           8.0622    0.8100    0.0000 C.2     1  UNL1       -0.0635
     22 C          16.7224    0.8100    0.0000 C.2     1  UNL1        0.3047
     23 H          12.8598    0.3351    0.0000 H       1  UNL1        0.0265
     24 H          13.6569    0.3351    0.0000 H       1  UNL1        0.0265
     25 H          12.7908    1.7850    0.0000 H       1  UNL1        0.0265
     26 H          11.9938    1.7850    0.0000 H       1  UNL1        0.0265
     27 H          14.5229    1.7850    0.0000 H       1  UNL1        0.0265
     28 H          13.7258    1.7850    0.0000 H       1  UNL1        0.0265
     29 H          11.1278    0.3351    0.0000 H       1  UNL1        0.0268
     30 H          11.9248    0.3351    0.0000 H       1  UNL1        0.0268
     31 H           4.1996    0.3351    0.0000 H       1  UNL1        0.0266
     32 H           4.9966    0.3351    0.0000 H       1  UNL1        0.0266
     33 H          14.5919    0.3351    0.0000 H       1  UNL1        0.0270
     34 H          15.3889    0.3351    0.0000 H       1  UNL1        0.0270
     35 H           5.8626    1.7850    0.0000 H       1  UNL1        0.0294
     36 H           5.0656    1.7850    0.0000 H       1  UNL1        0.0294
     37 H           4.1306    1.7850    0.0000 H       1  UNL1        0.0265
     38 H           3.3335    1.7850    0.0000 H       1  UNL1        0.0265
     39 H          11.0588    1.7850    0.0000 H       1  UNL1        0.0307
     40 H          10.2617    1.7850    0.0000 H       1  UNL1        0.0307
     41 H           7.0662    0.3850    0.0000 H       1  UNL1        0.0672
     42 H           2.4675    0.3351    0.0000 H       1  UNL1        0.0263
     43 H           3.2646    0.3351    0.0000 H       1  UNL1        0.0263
     44 H          16.2549    1.7850    0.0000 H       1  UNL1        0.0377
     45 H          15.4579    1.7850    0.0000 H       1  UNL1        0.0377
     46 H           9.7942    0.1900    0.0000 H       1  UNL1        0.0572
     47 H           7.1962    1.9300    0.0000 H       1  UNL1        0.0599
     48 H           2.3100    1.8469    0.0000 H       1  UNL1        0.0230
     49 H           1.4631    1.6200    0.0000 H       1  UNL1        0.0230
     50 H           1.6900    0.7731    0.0000 H       1  UNL1        0.0230
     51 H           8.9282    1.9300    0.0000 H       1  UNL1        0.0614
     52 H           8.0622    0.1900    0.0000 H       1  UNL1        0.0615
     53 H          18.1254    1.0000    0.0000 H       1  UNL1        0.2951
     54 H           5.4641   -1.3100    0.0000 H       1  UNL1        0.2531
@<TRIPOS>BOND
     1     1     3    1
     2     1    14    1
     3     2    22    1
     4     2    53    1
     5     3    54    1
     6     4    22    2
     7     5     6    1
     8     5     7    1
     9     5    23    1
    10     5    24    1
    11     6     8    1
    12     6    25    1
    13     6    26    1
    14     7    10    1
    15     7    27    1
    16     7    28    1
    17     8    13    1
    18     8    29    1
    19     8    30    1
    20     9    11    1
    21     9    12    1
    22     9    31    1
    23     9    32    1
    24    10    16    1
    25    10    33    1
    26    10    34    1
    27    11    14    1
    28    11    35    1
    29    11    36    1
    30    12    15    1
    31    12    37    1
    32    12    38    1
    33    13    17    1
    34    13    39    1
    35    13    40    1
    36    14    18    1
    37    14    41    1
    38    15    19    1
    39    15    42    1
    40    15    43    1
    41    16    22    1
    42    16    44    1
    43    16    45    1
    44    17    20    2
    45    17    46    1
    46    18    21    2
    47    18    47    1
    48    19    48    1
    49    19    49    1
    50    19    50    1
    51    20    21    1
    52    20    51    1
    53    21    52    1
