@<TRIPOS>MOLECULE
IMPHY008539
 46 48 0 0 0
SMALL
GASTEIGER

@<TRIPOS>ATOM
      1 O           8.1962    0.1723    0.0000 O.3     1  UNL1       -0.4946
      2 O           6.4144   -2.8864    0.0000 O.3     1  UNL1       -0.5059
      3 O           4.6660   -2.8519    0.0000 O.2     1  UNL1       -0.2864
      4 O           2.9176    1.1827    0.0000 O.3     1  UNL1       -0.5047
      5 N           4.6660    0.1481    0.0000 N.ar    1  UNL1       -0.3395
      6 C           5.5321   -0.3519    0.0000 C.ar    1  UNL1        0.0636
      7 C           5.5321   -1.3518    0.0000 C.ar    1  UNL1        0.0876
      8 C           6.4260    0.1828    0.0000 C.ar    1  UNL1        0.0224
      9 C           3.8000   -0.3519    0.0000 C.ar    1  UNL1        0.0949
     10 C           3.8000   -1.3518    0.0000 C.ar    1  UNL1        0.0495
     11 C           4.6660   -1.8518    0.0000 C.ar    1  UNL1        0.2007
     12 C           6.4144    1.1827    0.0000 C.3     1  UNL1       -0.0038
     13 C           7.3321   -0.3310    0.0000 C.ar    1  UNL1        0.1290
     14 C           6.4260   -1.8865    0.0000 C.ar    1  UNL1        0.1331
     15 C           4.6660    1.1482    0.0000 C.3     1  UNL1        0.0125
     16 C           7.3321   -1.3727    0.0000 C.ar    1  UNL1        0.0227
     17 C           2.9061    0.1828    0.0000 C.ar    1  UNL1        0.1409
     18 C           2.9061   -1.8865    0.0000 C.ar    1  UNL1       -0.0487
     19 C           7.2746    1.6927    0.0000 C.2     1  UNL1       -0.0808
     20 C           2.0000   -0.3310    0.0000 C.ar    1  UNL1       -0.0181
     21 C           2.0000   -1.3727    0.0000 C.ar    1  UNL1       -0.0575
     22 C           7.2631    2.6927    0.0000 C.2     1  UNL1       -0.0793
     23 C           8.1232    3.2026    0.0000 C.3     1  UNL1       -0.0440
     24 C           6.3913    3.1826    0.0000 C.3     1  UNL1       -0.0440
     25 C           9.0641   -0.3244    0.0000 C.3     1  UNL1        0.0788
     26 H           6.1957    1.7629    0.0000 H       1  UNL1        0.0357
     27 H           5.8051    1.0680    0.0000 H       1  UNL1        0.0357
     28 H           5.2860    1.1482    0.0000 H       1  UNL1        0.0456
     29 H           4.6660    1.7682    0.0000 H       1  UNL1        0.0456
     30 H           4.0460    1.1482    0.0000 H       1  UNL1        0.0456
     31 H           7.8678   -1.6847    0.0000 H       1  UNL1        0.0691
     32 H           2.9132   -2.5065    0.0000 H       1  UNL1        0.0625
     33 H           7.8151    1.3889    0.0000 H       1  UNL1        0.0575
     34 H           1.4643   -0.0190    0.0000 H       1  UNL1        0.0655
     35 H           1.4643   -1.6847    0.0000 H       1  UNL1        0.0619
     36 H           6.9478   -3.2026    0.0000 H       1  UNL1        0.2922
     37 H           2.3843    1.4989    0.0000 H       1  UNL1        0.2922
     38 H           8.4394    2.6693    0.0000 H       1  UNL1        0.0274
     39 H           8.6566    3.5188    0.0000 H       1  UNL1        0.0274
     40 H           7.8071    3.7360    0.0000 H       1  UNL1        0.0274
     41 H           6.6951    3.7231    0.0000 H       1  UNL1        0.0274
     42 H           5.8508    3.4864    0.0000 H       1  UNL1        0.0274
     43 H           6.0875    2.6421    0.0000 H       1  UNL1        0.0274
     44 H           8.7562   -0.8625    0.0000 H       1  UNL1        0.0660
     45 H           9.6022   -0.6323    0.0000 H       1  UNL1        0.0660
     46 H           9.3720    0.2138    0.0000 H       1  UNL1        0.0660
@<TRIPOS>BOND
     1     1    13    1
     2     1    25    1
     3     2    14    1
     4     2    36    1
     5     3    11    2
     6     4    17    1
     7     4    37    1
     8     5     6   ar
     9     5     9   ar
    10     5    15    1
    11     6     7   ar
    12     6     8   ar
    13     7    11   ar
    14     7    14   ar
    15     8    12    1
    16     8    13   ar
    17     9    10   ar
    18     9    17   ar
    19    10    11   ar
    20    10    18   ar
    21    12    19    1
    22    12    26    1
    23    12    27    1
    24    13    16   ar
    25    14    16   ar
    26    15    28    1
    27    15    29    1
    28    15    30    1
    29    16    31    1
    30    17    20   ar
    31    18    21   ar
    32    18    32    1
    33    19    22    2
    34    19    33    1
    35    20    21   ar
    36    20    34    1
    37    21    35    1
    38    22    23    1
    39    22    24    1
    40    23    38    1
    41    23    39    1
    42    23    40    1
    43    24    41    1
    44    24    42    1
    45    24    43    1
    46    25    44    1
    47    25    45    1
    48    25    46    1
