@<TRIPOS>MOLECULE
IMPHY014427
 41 44 0 0 0
SMALL
GASTEIGER

@<TRIPOS>ATOM
      1 O           4.6743   -2.1124    0.0000 O.3     1  UNL1       -0.4576
      2 O           2.5664    0.5887    0.0000 O.3     1  UNL1       -0.3871
      3 O           4.1844    2.4818    0.0000 O.3     1  UNL1       -0.4635
      4 O           5.9445   -0.3081    0.0000 O.3     1  UNL1       -0.3899
      5 O           5.9397    2.2088    0.0000 O.2     1  UNL1       -0.2501
      6 O           6.4250   -1.8444    0.0000 O.2     1  UNL1       -0.2508
      7 C           4.1844   -0.5869    0.0000 C.3     1  UNL1        0.0764
      8 C           3.3754    0.0009    0.0000 C.3     1  UNL1        0.0879
      9 C           3.6844    0.9519    0.0000 C.3     1  UNL1        0.0494
     10 C           4.6844    0.9519    0.0000 C.3     1  UNL1        0.1024
     11 C           4.9934    0.0009    0.0000 C.3     1  UNL1        0.0838
     12 C           3.8748   -1.5315    0.0000 C.3     1  UNL1        0.1219
     13 C           2.5727   -0.5855    0.0000 C.3     1  UNL1       -0.0190
     14 C           2.8807   -1.5307    0.0000 C.3     1  UNL1       -0.0097
     15 C           5.1726   -0.5920    0.0000 C.3     1  UNL1        0.0593
     16 C           3.3797    1.8982    0.0000 C.3     1  UNL1        0.1016
     17 C           2.8185    1.4520    0.0000 C.3     1  UNL1       -0.0527
     18 C           4.9892    1.8982    0.0000 C.2     1  UNL1        0.3163
     19 C           5.6844    0.9519    0.0000 C.3     1  UNL1       -0.0462
     20 C           3.5633   -2.4818    0.0000 C.3     1  UNL1       -0.0241
     21 C           5.4747   -1.5329    0.0000 C.2     1  UNL1        0.3085
     22 H           5.4319    0.4393    0.0000 H       1  UNL1        0.0612
     23 H           2.2616   -0.0492    0.0000 H       1  UNL1        0.0294
     24 H           2.0067   -0.8385    0.0000 H       1  UNL1        0.0294
     25 H           2.2743   -1.6597    0.0000 H       1  UNL1        0.0305
     26 H           2.9453   -2.1473    0.0000 H       1  UNL1        0.0305
     27 H           5.7796   -0.4656    0.0000 H       1  UNL1        0.0386
     28 H           5.1106    0.0249    0.0000 H       1  UNL1        0.0386
     29 H           3.0705    2.4356    0.0000 H       1  UNL1        0.0704
     30 H           2.8128    1.6471    0.0000 H       1  UNL1        0.0704
     31 H           3.1285    1.9889    0.0000 H       1  UNL1        0.0237
     32 H           2.2816    1.7621    0.0000 H       1  UNL1        0.0237
     33 H           2.5084    0.9151    0.0000 H       1  UNL1        0.0237
     34 H           5.6844    0.3319    0.0000 H       1  UNL1        0.0241
     35 H           6.3044    0.9519    0.0000 H       1  UNL1        0.0241
     36 H           5.6844    1.5719    0.0000 H       1  UNL1        0.0241
     37 H           2.9742   -2.2886    0.0000 H       1  UNL1        0.0268
     38 H           3.3702   -3.0709    0.0000 H       1  UNL1        0.0268
     39 H           4.1525   -2.6749    0.0000 H       1  UNL1        0.0268
     40 H           2.0000    0.3365    0.0000 H       1  UNL1        0.2102
     41 H           6.4053    0.1067    0.0000 H       1  UNL1        0.2098
@<TRIPOS>BOND
     1     1    12    1
     2     1    21    1
     3     8     2    1
     4     2    40    1
     5     3    16    1
     6     3    18    1
     7    11     4    1
     8     4    41    1
     9     5    18    2
    10     6    21    2
    11     7     8    1
    12     7    11    1
    13     7    12    1
    14     7    15    1
    15     8     9    1
    16     8    13    1
    17     9    10    1
    18     9    16    1
    19     9    17    1
    20    10    11    1
    21    10    18    1
    22    10    19    1
    23    11    22    1
    24    12    14    1
    25    12    20    1
    26    13    14    1
    27    13    23    1
    28    13    24    1
    29    14    25    1
    30    14    26    1
    31    15    21    1
    32    15    27    1
    33    15    28    1
    34    16    29    1
    35    16    30    1
    36    17    31    1
    37    17    32    1
    38    17    33    1
    39    19    34    1
    40    19    35    1
    41    19    36    1
    42    20    37    1
    43    20    38    1
    44    20    39    1
