@<TRIPOS>MOLECULE
IMPHY010597
 75 78 0 0 0
SMALL
GASTEIGER

@<TRIPOS>ATOM
      1 O           9.2331    1.2705    0.0000 O.3     1  UNL1       -0.3620
      2 O           5.1350   -1.0955    0.0000 O.3     1  UNL1       -0.3610
      3 O           7.2331    1.2705    0.0000 O.3     1  UNL1       -0.3714
      4 O           6.7331    2.1365    0.0000 O.3     1  UNL1       -0.3864
      5 O           7.7331    3.8686    0.0000 O.3     1  UNL1       -0.3865
      6 O           9.7331    3.8686    0.0000 O.3     1  UNL1       -0.3865
      7 O           6.8671   -3.0955    0.0000 O.3     1  UNL1       -0.3862
      8 O           5.1350   -4.0955    0.0000 O.3     1  UNL1       -0.3865
      9 O           3.4030   -3.0955    0.0000 O.3     1  UNL1       -0.3865
     10 O           6.0010    0.4045    0.0000 O.2     1  UNL1       -0.2885
     11 O           9.4651    0.4045    0.0000 O.2     1  UNL1       -0.2881
     12 O           7.7331   -2.5955    0.0000 O.2     1  UNL1       -0.5055
     13 O          11.2331    3.0026    0.0000 O.3     1  UNL1       -0.3924
     14 O           2.5369   -1.5955    0.0000 O.3     1  UNL1       -0.3924
     15 O           9.4651   -2.5955    0.0000 O.2     1  UNL1       -0.5059
     16 O          14.6613    0.4045    0.0000 O.3     1  UNL1       -0.5068
     17 C           8.2331    1.2705    0.0000 C.3     1  UNL1        0.1307
     18 C           7.7331    0.4045    0.0000 C.3     1  UNL1        0.2193
     19 C           7.7331    2.1365    0.0000 C.3     1  UNL1        0.1132
     20 C           8.2331    3.0026    0.0000 C.3     1  UNL1        0.1119
     21 C           9.2331    3.0026    0.0000 C.3     1  UNL1        0.1117
     22 C           9.7331    2.1365    0.0000 C.3     1  UNL1        0.1105
     23 C           6.0010   -1.5955    0.0000 C.3     1  UNL1        0.1193
     24 C           6.0010   -2.5955    0.0000 C.3     1  UNL1        0.1139
     25 C           6.8671   -1.0955    0.0000 C.2     1  UNL1        0.0717
     26 C           6.8671   -0.0955    0.0000 C.2     1  UNL1        0.2070
     27 C           5.1350   -3.0955    0.0000 C.3     1  UNL1        0.1121
     28 C           4.2690   -2.5955    0.0000 C.3     1  UNL1        0.1117
     29 C           4.2690   -1.5955    0.0000 C.3     1  UNL1        0.1108
     30 C           8.5991   -0.0955    0.0000 C.2     1  UNL1        0.2119
     31 C           7.7331   -1.5955    0.0000 C.2     1  UNL1        0.1401
     32 C           8.5991   -1.0955    0.0000 C.2     1  UNL1        0.1040
     33 C          10.7331    2.1365    0.0000 C.3     1  UNL1        0.0729
     34 C           3.4030   -1.0955    0.0000 C.3     1  UNL1        0.0729
     35 C           9.4651   -1.5955    0.0000 C.2     1  UNL1        0.1310
     36 C          10.3312   -1.0955    0.0000 C.2     1  UNL1       -0.0188
     37 C          11.1972   -1.5955    0.0000 C.2     1  UNL1       -0.0511
     38 C          12.0632   -1.0955    0.0000 C.ar    1  UNL1       -0.0247
     39 C          12.9292   -1.5955    0.0000 C.ar    1  UNL1       -0.0511
     40 C          12.0632   -0.0955    0.0000 C.ar    1  UNL1       -0.0511
     41 C          13.7953   -1.0955    0.0000 C.ar    1  UNL1       -0.0196
     42 C          12.9292    0.4045    0.0000 C.ar    1  UNL1       -0.0196
     43 C          13.7953   -0.0955    0.0000 C.ar    1  UNL1        0.1169
     44 H           8.6581    0.5344    0.0000 H       1  UNL1        0.0661
     45 H           7.4231    1.5996    0.0000 H       1  UNL1        0.0647
     46 H           8.5431    3.5395    0.0000 H       1  UNL1        0.0647
     47 H           9.8531    3.0026    0.0000 H       1  UNL1        0.0647
     48 H          10.0431    1.5996    0.0000 H       1  UNL1        0.0646
     49 H           6.7372   -2.0205    0.0000 H       1  UNL1        0.0676
     50 H           6.0010   -3.2155    0.0000 H       1  UNL1        0.0649
     51 H           4.5981   -3.4055    0.0000 H       1  UNL1        0.0647
     52 H           3.7320   -2.2855    0.0000 H       1  UNL1        0.0647
     53 H           4.2690   -0.9755    0.0000 H       1  UNL1        0.0646
     54 H          10.6254    1.5260    0.0000 H       1  UNL1        0.0584
     55 H          11.3157    1.9245    0.0000 H       1  UNL1        0.0584
     56 H           6.6131    1.2705    0.0000 H       1  UNL1        0.2114
     57 H           6.4231    2.6735    0.0000 H       1  UNL1        0.2100
     58 H           3.8015   -0.6206    0.0000 H       1  UNL1        0.0584
     59 H           3.0044   -0.6206    0.0000 H       1  UNL1        0.0584
     60 H           8.0431    4.4055    0.0000 H       1  UNL1        0.2100
     61 H           9.4231    4.4055    0.0000 H       1  UNL1        0.2100
     62 H           6.8671   -3.7155    0.0000 H       1  UNL1        0.2100
     63 H           4.5981   -4.4055    0.0000 H       1  UNL1        0.2100
     64 H           3.4030   -3.7155    0.0000 H       1  UNL1        0.2100
     65 H           8.2700   -2.9055    0.0000 H       1  UNL1        0.2922
     66 H          11.8531    3.0026    0.0000 H       1  UNL1        0.2095
     67 H           2.0000   -1.2855    0.0000 H       1  UNL1        0.2095
     68 H          10.3312   -0.4755    0.0000 H       1  UNL1        0.0654
     69 H          10.0021   -2.9055    0.0000 H       1  UNL1        0.2922
     70 H          11.1972   -2.2155    0.0000 H       1  UNL1        0.0625
     71 H          12.9292   -2.2155    0.0000 H       1  UNL1        0.0625
     72 H          11.5263    0.2145    0.0000 H       1  UNL1        0.0625
     73 H          14.3322   -1.4055    0.0000 H       1  UNL1        0.0654
     74 H          12.9292    1.0245    0.0000 H       1  UNL1        0.0654
     75 H          15.1982    0.0945    0.0000 H       1  UNL1        0.2921
@<TRIPOS>BOND
     1     1    17    1
     2     1    22    1
     3     2    23    1
     4     2    29    1
     5     3    18    1
     6     3    56    1
     7    19     4    1
     8     4    57    1
     9    20     5    1
    10     5    60    1
    11    21     6    1
    12     6    61    1
    13    24     7    1
    14     7    62    1
    15    27     8    1
    16     8    63    1
    17    28     9    1
    18     9    64    1
    19    10    26    2
    20    11    30    2
    21    12    31    1
    22    12    65    1
    23    13    33    1
    24    13    66    1
    25    14    34    1
    26    14    67    1
    27    15    35    1
    28    15    69    1
    29    16    43    1
    30    16    75    1
    31    17    18    1
    32    17    19    1
    33    17    44    1
    34    18    26    1
    35    18    30    1
    36    19    20    1
    37    19    45    1
    38    20    21    1
    39    20    46    1
    40    21    22    1
    41    21    47    1
    42    22    33    1
    43    22    48    1
    44    23    24    1
    45    23    25    1
    46    23    49    1
    47    24    27    1
    48    24    50    1
    49    25    26    1
    50    25    31    2
    51    27    28    1
    52    27    51    1
    53    28    29    1
    54    28    52    1
    55    29    34    1
    56    29    53    1
    57    30    32    1
    58    31    32    1
    59    32    35    2
    60    33    54    1
    61    33    55    1
    62    34    58    1
    63    34    59    1
    64    35    36    1
    65    36    37    2
    66    36    68    1
    67    37    38    1
    68    37    70    1
    69    38    39   ar
    70    38    40   ar
    71    39    41   ar
    72    39    71    1
    73    40    42   ar
    74    40    72    1
    75    41    43   ar
    76    41    73    1
    77    42    43   ar
    78    42    74    1
