@<TRIPOS>MOLECULE
IMPHY003461
 46 48 0 0 0
SMALL
GASTEIGER

@<TRIPOS>ATOM
      1 O           2.0000    2.6791    0.0000 O.3     1  UNL1       -0.4914
      2 O           2.0000    0.6791    0.0000 O.3     1  UNL1       -0.5033
      3 O           8.9212   -2.3954    0.0000 O.3     1  UNL1       -0.4915
      4 O           7.1777   -3.3753    0.0000 O.3     1  UNL1       -0.5033
      5 N           6.3981    1.1583    0.0000 N.2     1  UNL1       -0.2336
      6 C           5.4920    0.6444    0.0000 C.2     1  UNL1        0.1904
      7 C           6.3981    2.1999    0.0000 C.3     1  UNL1        0.1490
      8 C           5.4920    2.7138    0.0000 C.3     1  UNL1        0.0325
      9 C           4.5981    1.1791    0.0000 C.ar    1  UNL1        0.0486
     10 C           4.5981    2.1791    0.0000 C.ar    1  UNL1       -0.0246
     11 C           5.4804   -0.3555    0.0000 C.3     1  UNL1        0.0578
     12 C           3.7320    2.6791    0.0000 C.ar    1  UNL1       -0.0122
     13 C           3.7320    0.6791    0.0000 C.ar    1  UNL1       -0.0032
     14 C           7.2622    0.6549    0.0000 C.3     1  UNL1        0.1352
     15 C           6.3406   -0.8655    0.0000 C.ar    1  UNL1       -0.0336
     16 C           2.8660    2.1791    0.0000 C.ar    1  UNL1        0.1616
     17 C           2.8660    1.1791    0.0000 C.ar    1  UNL1        0.1592
     18 C           6.3291   -1.8654    0.0000 C.ar    1  UNL1       -0.0128
     19 C           7.2124   -0.3755    0.0000 C.ar    1  UNL1       -0.0544
     20 C           7.1893   -2.3754    0.0000 C.ar    1  UNL1        0.1587
     21 C           8.0726   -0.8855    0.0000 C.ar    1  UNL1       -0.0160
     22 C           8.0610   -1.8854    0.0000 C.ar    1  UNL1        0.1613
     23 C           2.0000    3.6791    0.0000 C.3     1  UNL1        0.0790
     24 C           9.7930   -1.9055    0.0000 C.3     1  UNL1        0.0790
     25 H           7.0089    2.0938    0.0000 H       1  UNL1        0.1029
     26 H           6.6071    2.7836    0.0000 H       1  UNL1        0.1029
     27 H           5.8856    3.1928    0.0000 H       1  UNL1        0.0375
     28 H           5.0874    3.1836    0.0000 H       1  UNL1        0.0375
     29 H           4.8712   -0.2408    0.0000 H       1  UNL1        0.0421
     30 H           5.2617   -0.9356    0.0000 H       1  UNL1        0.0421
     31 H           3.7320    3.2991    0.0000 H       1  UNL1        0.0658
     32 H           3.7320    0.0591    0.0000 H       1  UNL1        0.0663
     33 H           6.9501    0.1192    0.0000 H       1  UNL1        0.0988
     34 H           7.7979    0.3429    0.0000 H       1  UNL1        0.0988
     35 H           7.5742    1.1907    0.0000 H       1  UNL1        0.0988
     36 H           5.7886   -2.1692    0.0000 H       1  UNL1        0.0658
     37 H           7.2196    0.2444    0.0000 H       1  UNL1        0.0622
     38 H           8.6131   -0.5817    0.0000 H       1  UNL1        0.0655
     39 H           2.0000    0.0591    0.0000 H       1  UNL1        0.2923
     40 H           2.6200    3.6791    0.0000 H       1  UNL1        0.0660
     41 H           2.0000    4.2991    0.0000 H       1  UNL1        0.0660
     42 H           1.3800    3.6791    0.0000 H       1  UNL1        0.0660
     43 H           6.6372   -3.6791    0.0000 H       1  UNL1        0.2923
     44 H          10.0967   -2.4460    0.0000 H       1  UNL1        0.0660
     45 H          10.3334   -1.6017    0.0000 H       1  UNL1        0.0660
     46 H           9.4892   -1.3650    0.0000 H       1  UNL1        0.0660
@<TRIPOS>UNITY_ATOM_ATTR
5 1
charge 1
@<TRIPOS>BOND
     1     1    16    1
     2     1    23    1
     3     2    17    1
     4     2    39    1
     5     3    22    1
     6     3    24    1
     7     4    20    1
     8     4    43    1
     9     5     6    2
    10     5     7    1
    11     5    14    1
    12     6     9    1
    13     6    11    1
    14     7     8    1
    15     7    25    1
    16     7    26    1
    17     8    10    1
    18     8    27    1
    19     8    28    1
    20     9    10   ar
    21     9    13   ar
    22    10    12   ar
    23    11    15    1
    24    11    29    1
    25    11    30    1
    26    12    16   ar
    27    12    31    1
    28    13    17   ar
    29    13    32    1
    30    14    33    1
    31    14    34    1
    32    14    35    1
    33    15    18   ar
    34    15    19   ar
    35    16    17   ar
    36    18    20   ar
    37    18    36    1
    38    19    21   ar
    39    19    37    1
    40    20    22   ar
    41    21    22   ar
    42    21    38    1
    43    23    40    1
    44    23    41    1
    45    23    42    1
    46    24    44    1
    47    24    45    1
    48    24    46    1
