@<TRIPOS>MOLECULE
IMPHY012159
 90 90 0 0 0
SMALL
GASTEIGER

@<TRIPOS>ATOM
      1 O          15.8564   -2.7500    0.0000 O.3     1  UNL1       -0.4611
      2 O          12.3923   -4.7500    0.0000 O.3     1  UNL1       -0.4611
      3 O          14.1244   -2.7500    0.0000 O.2     1  UNL1       -0.2449
      4 O          13.2583   -3.2500    0.0000 O.2     1  UNL1       -0.2449
      5 C          18.4545    1.7500    0.0000 C.3     1  UNL1       -0.0531
      6 C           7.1962   -4.7500    0.0000 C.3     1  UNL1       -0.0531
      7 C          18.4545    2.7500    0.0000 C.3     1  UNL1       -0.0531
      8 C           6.3301   -4.2500    0.0000 C.3     1  UNL1       -0.0531
      9 C          17.5885    1.2500    0.0000 C.3     1  UNL1       -0.0531
     10 C           8.0622   -4.2500    0.0000 C.3     1  UNL1       -0.0531
     11 C          19.3205    3.2500    0.0000 C.3     1  UNL1       -0.0531
     12 C           5.4641   -4.7500    0.0000 C.3     1  UNL1       -0.0531
     13 C          17.5885    0.2500    0.0000 C.3     1  UNL1       -0.0530
     14 C           8.9282   -4.7500    0.0000 C.3     1  UNL1       -0.0530
     15 C          19.3205    4.2500    0.0000 C.3     1  UNL1       -0.0531
     16 C           4.5981   -4.2500    0.0000 C.3     1  UNL1       -0.0531
     17 C          16.7224   -0.2500    0.0000 C.3     1  UNL1       -0.0500
     18 C           9.7942   -4.2500    0.0000 C.3     1  UNL1       -0.0500
     19 C          20.1865    4.7500    0.0000 C.3     1  UNL1       -0.0533
     20 C           3.7320   -4.7500    0.0000 C.3     1  UNL1       -0.0533
     21 C          16.7224   -1.2500    0.0000 C.3     1  UNL1       -0.0185
     22 C          10.6603   -4.7500    0.0000 C.3     1  UNL1       -0.0185
     23 C          20.1865    5.7500    0.0000 C.3     1  UNL1       -0.0559
     24 C           2.8660   -4.2500    0.0000 C.3     1  UNL1       -0.0559
     25 C          15.8564   -1.7500    0.0000 C.3     1  UNL1        0.0928
     26 C          11.5263   -4.2500    0.0000 C.3     1  UNL1        0.0928
     27 C          21.0526    6.2500    0.0000 C.3     1  UNL1       -0.0653
     28 C           2.0000   -4.7500    0.0000 C.3     1  UNL1       -0.0653
     29 C          14.9904   -3.2500    0.0000 C.2     1  UNL1        0.3400
     30 C          13.2583   -4.2500    0.0000 C.2     1  UNL1        0.3400
     31 C          14.9904   -4.2500    0.0000 C.ar    1  UNL1        0.0729
     32 C          14.1244   -4.7500    0.0000 C.ar    1  UNL1        0.0729
     33 C          15.8564   -4.7500    0.0000 C.ar    1  UNL1       -0.0470
     34 C          14.1244   -5.7500    0.0000 C.ar    1  UNL1       -0.0470
     35 C          15.8564   -5.7500    0.0000 C.ar    1  UNL1       -0.0609
     36 C          14.9904   -6.2500    0.0000 C.ar    1  UNL1       -0.0609
     37 H          18.6665    1.1674    0.0000 H       1  UNL1        0.0265
     38 H          19.0651    1.8577    0.0000 H       1  UNL1        0.0265
     39 H           6.7976   -5.2250    0.0000 H       1  UNL1        0.0265
     40 H           7.5947   -5.2250    0.0000 H       1  UNL1        0.0265
     41 H          18.2424    3.3326    0.0000 H       1  UNL1        0.0265
     42 H          17.8439    2.6423    0.0000 H       1  UNL1        0.0265
     43 H           6.7287   -3.7750    0.0000 H       1  UNL1        0.0265
     44 H           5.9316   -3.7750    0.0000 H       1  UNL1        0.0265
     45 H          17.3764    1.8326    0.0000 H       1  UNL1        0.0265
     46 H          16.9779    1.1423    0.0000 H       1  UNL1        0.0265
     47 H           8.4607   -3.7750    0.0000 H       1  UNL1        0.0265
     48 H           7.6636   -3.7750    0.0000 H       1  UNL1        0.0265
     49 H          19.5326    2.6674    0.0000 H       1  UNL1        0.0265
     50 H          19.9311    3.3577    0.0000 H       1  UNL1        0.0265
     51 H           5.0656   -5.2250    0.0000 H       1  UNL1        0.0265
     52 H           5.8626   -5.2250    0.0000 H       1  UNL1        0.0265
     53 H          17.8005   -0.3326    0.0000 H       1  UNL1        0.0265
     54 H          18.1990    0.3577    0.0000 H       1  UNL1        0.0265
     55 H           8.5297   -5.2250    0.0000 H       1  UNL1        0.0265
     56 H           9.3267   -5.2250    0.0000 H       1  UNL1        0.0265
     57 H          19.1085    4.8326    0.0000 H       1  UNL1        0.0265
     58 H          18.7099    4.1423    0.0000 H       1  UNL1        0.0265
     59 H           4.9966   -3.7750    0.0000 H       1  UNL1        0.0265
     60 H           4.1996   -3.7750    0.0000 H       1  UNL1        0.0265
     61 H          16.5104    0.3326    0.0000 H       1  UNL1        0.0266
     62 H          16.1119   -0.3577    0.0000 H       1  UNL1        0.0266
     63 H          10.1928   -3.7750    0.0000 H       1  UNL1        0.0266
     64 H           9.3957   -3.7750    0.0000 H       1  UNL1        0.0266
     65 H          20.3986    4.1674    0.0000 H       1  UNL1        0.0265
     66 H          20.7971    4.8577    0.0000 H       1  UNL1        0.0265
     67 H           3.3335   -5.2250    0.0000 H       1  UNL1        0.0265
     68 H           4.1306   -5.2250    0.0000 H       1  UNL1        0.0265
     69 H          16.9345   -1.8326    0.0000 H       1  UNL1        0.0298
     70 H          17.3330   -1.1423    0.0000 H       1  UNL1        0.0298
     71 H          10.2617   -5.2250    0.0000 H       1  UNL1        0.0298
     72 H          11.0588   -5.2250    0.0000 H       1  UNL1        0.0298
     73 H          19.9745    6.3326    0.0000 H       1  UNL1        0.0263
     74 H          19.5760    5.6423    0.0000 H       1  UNL1        0.0263
     75 H           3.2646   -3.7750    0.0000 H       1  UNL1        0.0263
     76 H           2.4675   -3.7750    0.0000 H       1  UNL1        0.0263
     77 H          15.6444   -1.1674    0.0000 H       1  UNL1        0.0697
     78 H          15.2458   -1.8577    0.0000 H       1  UNL1        0.0697
     79 H          11.9248   -3.7750    0.0000 H       1  UNL1        0.0697
     80 H          11.1278   -3.7750    0.0000 H       1  UNL1        0.0697
     81 H          21.3626    5.7131    0.0000 H       1  UNL1        0.0230
     82 H          21.5895    6.5600    0.0000 H       1  UNL1        0.0230
     83 H          20.7426    6.7869    0.0000 H       1  UNL1        0.0230
     84 H           1.6900   -4.2131    0.0000 H       1  UNL1        0.0230
     85 H           1.4631   -5.0600    0.0000 H       1  UNL1        0.0230
     86 H           2.3100   -5.2869    0.0000 H       1  UNL1        0.0230
     87 H          16.3933   -4.4400    0.0000 H       1  UNL1        0.0626
     88 H          13.5874   -6.0600    0.0000 H       1  UNL1        0.0626
     89 H          16.3933   -6.0600    0.0000 H       1  UNL1        0.0618
     90 H          14.9904   -6.8700    0.0000 H       1  UNL1        0.0618
@<TRIPOS>BOND
     1     1    25    1
     2     1    29    1
     3     2    26    1
     4     2    30    1
     5     3    29    2
     6     4    30    2
     7     5     7    1
     8     5     9    1
     9     5    37    1
    10     5    38    1
    11     6     8    1
    12     6    10    1
    13     6    39    1
    14     6    40    1
    15     7    11    1
    16     7    41    1
    17     7    42    1
    18     8    12    1
    19     8    43    1
    20     8    44    1
    21     9    13    1
    22     9    45    1
    23     9    46    1
    24    10    14    1
    25    10    47    1
    26    10    48    1
    27    11    15    1
    28    11    49    1
    29    11    50    1
    30    12    16    1
    31    12    51    1
    32    12    52    1
    33    13    17    1
    34    13    53    1
    35    13    54    1
    36    14    18    1
    37    14    55    1
    38    14    56    1
    39    15    19    1
    40    15    57    1
    41    15    58    1
    42    16    20    1
    43    16    59    1
    44    16    60    1
    45    17    21    1
    46    17    61    1
    47    17    62    1
    48    18    22    1
    49    18    63    1
    50    18    64    1
    51    19    23    1
    52    19    65    1
    53    19    66    1
    54    20    24    1
    55    20    67    1
    56    20    68    1
    57    21    25    1
    58    21    69    1
    59    21    70    1
    60    22    26    1
    61    22    71    1
    62    22    72    1
    63    23    27    1
    64    23    73    1
    65    23    74    1
    66    24    28    1
    67    24    75    1
    68    24    76    1
    69    25    77    1
    70    25    78    1
    71    26    79    1
    72    26    80    1
    73    27    81    1
    74    27    82    1
    75    27    83    1
    76    28    84    1
    77    28    85    1
    78    28    86    1
    79    29    31    1
    80    30    32    1
    81    31    32   ar
    82    31    33   ar
    83    32    34   ar
    84    33    35   ar
    85    33    87    1
    86    34    36   ar
    87    34    88    1
    88    35    36   ar
    89    35    89    1
    90    36    90    1
