@<TRIPOS>MOLECULE
IMPHY010750
 70 74 0 0 0
SMALL
GASTEIGER

@<TRIPOS>ATOM
      1 O          11.7159   -6.7859    0.0000 O.3     1  UNL1       -0.3277
      2 C          12.8594   -7.4607    0.0000 C.3     1  UNL1        0.2798
      3 C          12.8594   -8.7916    0.0000 C.3     1  UNL1        0.2572
      4 C          11.7159   -9.4477    0.0000 C.3     1  UNL1        0.2262
      5 C          10.5724   -8.7916    0.0000 C.3     1  UNL1        0.1788
      6 C          10.5724   -7.4607    0.0000 C.3     1  UNL1        0.1477
      7 O          14.0216   -6.7859    0.0000 O.3     1  UNL1       -0.3212
      8 C          14.0028   -4.8738    0.0000 C.3     1  UNL1        0.2162
      9 C          15.1651   -4.1990    0.0000 C.3     1  UNL1        0.2333
     10 O          16.3273   -4.8738    0.0000 O.3     1  UNL1       -0.4468
     11 C          17.5082   -4.2177    0.0000 C.2     1  UNL1        0.3170
     12 C          17.5082   -3.1305    0.0000 C.3     1  UNL1        0.1096
     13 C          18.7454   -2.3807    0.0000 C.3     1  UNL1        0.0116
     14 C          17.5270   -1.6496    0.0000 C.3     1  UNL1        0.0006
     15 C          17.5270   -0.5436    0.0000 C.3     1  UNL1        0.0000
     16 C          16.5710    0.0000    0.0000 C.3     1  UNL1        0.0000
     17 C          15.4837   -0.6373    0.0000 C.3     1  UNL1        0.0000
     18 C          14.3965    0.0000    0.0000 C.3     1  UNL1        0.0001
     19 C          13.2905   -0.6373    0.0000 C.3     1  UNL1        0.0025
     20 C          12.2033    0.0000    0.0000 C.3     1  UNL1        0.0296
     21 C          11.1160   -0.6373    0.0000 C.3     1  UNL1        0.1179
     22 O          11.1160   -2.1932    0.0000 O.3     1  UNL1       -0.3312
     23 C          10.0101   -2.8118    0.0000 C.3     1  UNL1        0.2660
     24 O           8.9228   -2.1745    0.0000 O.3     1  UNL1       -0.3284
     25 C           7.8356   -2.8118    0.0000 C.3     1  UNL1        0.1508
     26 C           7.8356   -4.0678    0.0000 C.3     1  UNL1        0.2117
     27 C           8.9228   -4.7051    0.0000 C.3     1  UNL1        0.2165
     28 C          10.0101   -4.0678    0.0000 C.3     1  UNL1        0.2066
     29 O          11.4722   -4.9488    0.0000 O.3     1  UNL1       -0.3231
     30 C          12.8594   -4.1990    0.0000 C.3     1  UNL1        0.2674
     31 O          12.8594   -2.8681    0.0000 O.3     1  UNL1       -0.3284
     32 C          14.0028   -2.1932    0.0000 C.3     1  UNL1        0.1519
     33 C          15.1651   -2.8681    0.0000 C.3     1  UNL1        0.2212
     34 O          14.0403   -9.4477    0.0000 O.3     1  UNL1       -0.4442
     35 C          15.1838   -8.7916    0.0000 C.2     1  UNL1        0.3165
     36 O          15.1838   -7.4607    0.0000 O.2     1  UNL1       -0.2501
     37 O          11.7159  -10.7974    0.0000 O.3     1  UNL1       -0.2164
     38 O           9.3540   -9.5602    0.0000 O.3     1  UNL1       -0.3258
     39 C           8.0605   -8.8104    0.0000 C.3     1  UNL1        0.2695
     40 O           8.0605   -7.4794    0.0000 O.3     1  UNL1       -0.3273
     41 C           6.8983   -6.8233    0.0000 C.3     1  UNL1        0.1604
     42 C           5.7361   -7.4794    0.0000 C.3     1  UNL1        0.2285
     43 C           5.7361   -8.8104    0.0000 C.3     1  UNL1        0.2293
     44 C           6.8983   -9.4664    0.0000 C.3     1  UNL1        0.2416
     45 C           9.4102   -6.7859    0.0000 C.3     1  UNL1        0.0348
     46 O          18.6517   -4.8738    0.0000 O.2     1  UNL1       -0.2501
     47 C          10.0101    0.0000    0.0000 C.3     1  UNL1        0.0296
     48 C           8.9228   -0.6373    0.0000 C.3     1  UNL1        0.0025
     49 C           7.8356    0.0000    0.0000 C.3     1  UNL1        0.0001
     50 C           6.7296   -0.6373    0.0000 C.3     1  UNL1        0.0000
     51 C           5.6424    0.0000    0.0000 C.3     1  UNL1        0.0000
     52 C           6.7296   -2.1745    0.0000 C.3     1  UNL1        0.0350
     53 O           6.7296   -4.7051    0.0000 O.3     1  UNL1       -0.2177
     54 O           8.9228   -5.9798    0.0000 O.3     1  UNL1       -0.2175
     55 C          14.0028   -0.8623    0.0000 C.3     1  UNL1        0.0350
     56 O          16.3273   -2.1932    0.0000 O.3     1  UNL1       -0.2165
     57 C          16.3460   -9.4477    0.0000 C.3     1  UNL1        0.0991
     58 C          17.4895   -8.7916    0.0000 C.3     1  UNL1        0.0111
     59 C          18.6517   -9.4477    0.0000 C.3     1  UNL1        0.0006
     60 C           6.8983   -5.4924    0.0000 C.3     1  UNL1        0.0361
     61 O           4.5926   -6.8233    0.0000 O.3     1  UNL1       -0.4470
     62 C           3.4492   -7.4794    0.0000 C.2     1  UNL1        0.3165
     63 O           3.4492   -8.8104    0.0000 O.2     1  UNL1       -0.2501
     64 O           4.5926   -9.4664    0.0000 O.3     1  UNL1       -0.2162
     65 O           6.8983  -10.7974    0.0000 O.3     1  UNL1       -0.2148
     66 C          16.3460  -10.7974    0.0000 C.3     1  UNL1        0.0116
     67 C           2.2869   -6.8233    0.0000 C.3     1  UNL1        0.0991
     68 C           1.1435   -7.4794    0.0000 C.3     1  UNL1        0.0111
     69 C           0.0000   -6.8233    0.0000 C.3     1  UNL1        0.0006
     70 C           2.2869   -5.4924    0.0000 C.3     1  UNL1        0.0116
@<TRIPOS>BOND
     1     1     6    1
     2     1     2    1
     3     2     7    1
     4     2     3    1
     5     3     4    1
     6     3    34    1
     7     4     5    1
     8     4    37    1
     9     5     6    1
    10     5    38    1
    11     6    45    1
    12     8     7    1
    13     8     9    1
    14     8    30    1
    15     9    33    1
    16     9    10    1
    17    10    11    1
    18    11    12    1
    19    11    46    2
    20    12    13    1
    21    13    14    1
    22    14    15    1
    23    15    16    1
    24    16    17    1
    25    17    18    1
    26    18    19    1
    27    19    20    1
    28    20    21    1
    29    21    47    1
    30    21    22    1
    31    23    22    1
    32    23    28    1
    33    23    24    1
    34    24    25    1
    35    25    26    1
    36    25    52    1
    37    26    27    1
    38    26    53    1
    39    27    28    1
    40    27    54    1
    41    28    29    1
    42    30    29    1
    43    30    31    1
    44    31    32    1
    45    32    33    1
    46    32    55    1
    47    33    56    1
    48    34    35    1
    49    35    36    2
    50    39    38    1
    51    39    44    1
    52    39    40    1
    53    40    41    1
    54    41    42    1
    55    41    60    1
    56    42    43    1
    57    42    61    1
    58    43    44    1
    59    43    64    1
    60    44    65    1
    61    47    48    1
    62    48    49    1
    63    49    50    1
    64    50    51    1
    65    57    35    1
    66    57    66    1
    67    57    58    1
    68    58    59    1
    69    61    62    1
    70    62    63    2
    71    67    62    1
    72    67    70    1
    73    67    68    1
    74    68    69    1
