@<TRIPOS>MOLECULE
IMPHY000098
 158 162 0 0 0
SMALL
GASTEIGER

@<TRIPOS>ATOM
      1 SD          6.7351    1.2136    0.0000 S.3     7  MET7       -0.1641
      2 O           3.8959   -1.1866    0.0000 O.2     1  PRO1       -0.2735
      3 O           6.8938   -0.6775    0.0000 O.2     9  ILE9       -0.2735
      4 O           4.0538    2.6192    0.0000 O.2     2  PRO2       -0.2738
      5 O           3.6784   -2.7700    0.0000 O.2     8  LEU8       -0.2738
      6 O           5.4851    3.4456    0.0000 O.2     3  PHE3       -0.2738
      7 O           7.2352   -2.6524    0.0000 O.2     7  MET7       -0.2738
      8 O           8.5523    4.1643    0.0000 O.2     4  PHE4       -0.2738
      9 O          10.1265   -1.8952    0.0000 O.2     6  ILE6       -0.2738
     10 O          11.3241    1.6795    0.0000 O.2     5  VAL5       -0.2738
     11 N           6.1279   -0.3205    0.0000 N.am    1  PRO1       -0.2884
     12 N           3.5298    0.1795    0.0000 N.am    2  PRO2       -0.2884
     13 N           5.3514   -3.2182    0.0000 N.am    9  ILE9       -0.3022
     14 N           5.2619    1.1795    0.0000 N.am    3  PHE3       -0.3022
     15 N           5.8691   -1.2864    0.0000 N.am    8  LEU8       -0.3025
     16 N           6.9939    3.1795    0.0000 N.am    4  PHE4       -0.3022
     17 N           8.4672   -1.7864    0.0000 N.am    7  MET7       -0.3024
     18 N           9.5920    2.6795    0.0000 N.am    5  VAL5       -0.3022
     19 N          10.4580    0.1795    0.0000 N.am    6  ILE6       -0.3022
     20 CA          5.2619    0.1795    0.0000 C.3     1  PRO1        0.1025
     21 CB          5.3547    1.6744    0.0000 C.3     1  PRO1       -0.0243
     22 CA          3.5298    1.1795    0.0000 C.3     2  PRO2        0.1023
     23 CG          6.8348    1.9040    0.0000 C.3     1  PRO1       -0.0350
     24 CD          7.3761    0.5074    0.0000 C.3     1  PRO1        0.0156
     25 C           4.3958   -0.3205    0.0000 C.2     1  PRO1        0.2367
     26 CD          2.5836   -0.1252    0.0000 C.3     2  PRO2        0.0156
     27 CB          2.5836    1.4843    0.0000 C.3     2  PRO2       -0.0243
     28 CG          2.0000    0.6795    0.0000 C.3     2  PRO2       -0.0350
     29 C           6.1279   -1.3205    0.0000 C.2     9  ILE9        0.2368
     30 CA          6.0586   -2.5111    0.0000 C.3     9  ILE9        0.1022
     31 CB          6.4466   -3.4328    0.0000 C.3     9  ILE9       -0.0171
     32 C           4.3958    1.6795    0.0000 C.2     2  PRO2        0.2342
     33 CG1         5.8424   -4.2296    0.0000 C.3     9  ILE9       -0.0512
     34 CG2         7.4387   -3.5576    0.0000 C.3     9  ILE9       -0.0603
     35 CA          6.1279    1.6795    0.0000 C.3     3  PHE3        0.1034
     36 C           4.6443   -2.5111    0.0000 C.2     8  LEU8        0.2340
     37 CA          4.9032   -1.5452    0.0000 C.3     8  LEU8        0.0996
     38 CD1         6.2303   -5.1513    0.0000 C.3     9  ILE9       -0.0650
     39 CB          6.6279    2.5456    0.0000 C.3     3  PHE3       -0.0007
     40 CB          4.1960   -0.8381    0.0000 C.3     8  LEU8       -0.0236
     41 C           6.1279    2.6795    0.0000 C.2     3  PHE3        0.2343
     42 CG          3.2301   -1.0969    0.0000 C.3     8  LEU8       -0.0446
     43 CG          5.9852    3.3117    0.0000 C.ar    3  PHE3       -0.0451
     44 CA          7.8600    2.6795    0.0000 C.3     4  PHE4        0.1034
     45 C           6.7351   -1.7864    0.0000 C.2     7  MET7        0.2340
     46 CA          7.6011   -1.2864    0.0000 C.3     7  MET7        0.1002
     47 CD1         2.9713   -2.0629    0.0000 C.3     8  LEU8       -0.0626
     48 CD2         2.2642   -1.3558    0.0000 C.3     8  LEU8       -0.0626
     49 CA          9.5920   -0.3205    0.0000 C.3     6  ILE6        0.1020
     50 CB          8.7986    0.2883    0.0000 C.3     6  ILE6       -0.0171
     51 CB          8.8600    2.6796    0.0000 C.3     4  PHE4       -0.0007
     52 CA          9.5920    1.6795    0.0000 C.3     5  VAL5        0.1017
     53 CB          7.6011   -0.2864    0.0000 C.3     7  MET7       -0.0169
     54 CD1         5.0003    3.1380    0.0000 C.ar    3  PHE3       -0.0585
     55 CD2         6.3271    4.2513    0.0000 C.ar    3  PHE3       -0.0585
     56 C           8.7260    3.1795    0.0000 C.2     4  PHE4        0.2343
     57 C           9.3332   -1.2864    0.0000 C.2     6  ILE6        0.2342
     58 CB          9.2500    0.7398    0.0000 C.3     5  VAL5       -0.0197
     59 C          10.4580    1.1795    0.0000 C.2     5  VAL5        0.2342
     60 CG1         8.9292    1.2797    0.0000 C.3     6  ILE6       -0.0512
     61 CG2         8.1898   -0.5050    0.0000 C.3     6  ILE6       -0.0603
     62 CG          6.7351    0.2136    0.0000 C.3     7  MET7       -0.0044
     63 CG          9.5027    3.4456    0.0000 C.ar    4  PHE4       -0.0451
     64 CE1         4.3576    3.9040    0.0000 C.ar    3  PHE3       -0.0615
     65 CE2         5.6844    5.0173    0.0000 C.ar    3  PHE3       -0.0615
     66 CG1        10.1309    0.0006    0.0000 C.3     5  VAL5       -0.0605
     67 CG2         8.2651    0.5663    0.0000 C.3     5  VAL5       -0.0605
     68 CZ          4.6996    4.8438    0.0000 C.ar    3  PHE3       -0.0617
     69 CD1         8.1358    1.8885    0.0000 C.3     6  ILE6       -0.0650
     70 CD1        10.4875    3.2719    0.0000 C.ar    4  PHE4       -0.0585
     71 CD2         9.1607    4.3853    0.0000 C.ar    4  PHE4       -0.0585
     72 CE1        11.1303    4.0380    0.0000 C.ar    4  PHE4       -0.0615
     73 CE2         9.8035    5.1513    0.0000 C.ar    4  PHE4       -0.0615
     74 CZ         10.7883    4.9777    0.0000 C.ar    4  PHE4       -0.0617
     75 CE          7.7199    1.3873    0.0000 C.3     7  MET7       -0.0181
     76 HA          4.5393    0.6272    0.0000 H       1  PRO1        0.0597
     77 HB1         5.3040    2.2924    0.0000 H       1  PRO1        0.0288
     78 HB2         4.7348    1.6683    0.0000 H       1  PRO1        0.0288
     79 HA          3.4399    2.0248    0.0000 H       2  PRO2        0.0597
     80 HG1         7.4276    2.0859    0.0000 H       1  PRO1        0.0281
     81 HG2         6.6960    2.5082    0.0000 H       1  PRO1        0.0281
     82 HD1         7.6808   -0.0326    0.0000 H       1  PRO1        0.0465
     83 HD2         7.9366    0.7724    0.0000 H       1  PRO1        0.0465
     84 HD1         2.0462   -0.4344    0.0000 H       2  PRO2        0.0465
     85 HD2         2.8346   -0.6921    0.0000 H       2  PRO2        0.0465
     86 HB1         2.8346    2.0512    0.0000 H       2  PRO2        0.0288
     87 HB2         2.0462    1.7935    0.0000 H       2  PRO2        0.0288
     88 HG1         1.5391    1.0943    0.0000 H       2  PRO2        0.0281
     89 HG2         1.5391    0.2648    0.0000 H       2  PRO2        0.0281
     90 HA          5.8951   -3.3453    0.0000 H       9  ILE9        0.0597
     91 HB          6.8211   -2.9388    0.0000 H       9  ILE9        0.0321
     92 H           5.3514   -3.8382    0.0000 H       9  ILE9        0.1495
     93 HG11        5.4209   -3.7750    0.0000 H       9  ILE9        0.0266
     94 HG12        5.3214   -4.5658    0.0000 H       9  ILE9        0.0266
     95 H           4.7250    0.8694    0.0000 H       3  PHE3        0.1495
     96 HG21        7.3613   -4.1728    0.0000 H       9  ILE9        0.0233
     97 HG22        8.0539   -3.6350    0.0000 H       9  ILE9        0.0233
     98 HG23        7.5161   -2.9425    0.0000 H       9  ILE9        0.0233
     99 HA          6.5663    1.2411    0.0000 H       3  PHE3        0.0598
    100 HA          5.0636   -0.9463    0.0000 H       8  LEU8        0.0594
    101 HD11        5.6589   -5.3919    0.0000 H       9  ILE9        0.0230
    102 HD12        6.4709   -5.7227    0.0000 H       9  ILE9        0.0230
    103 HD13        6.8018   -4.9108    0.0000 H       9  ILE9        0.0230
    104 HB1         7.1252    2.1753    0.0000 H       3  PHE3        0.0336
    105 HB2         7.0534    2.9965    0.0000 H       3  PHE3        0.0336
    106 HB1         4.7039   -0.4825    0.0000 H       8  LEU8        0.0290
    107 HB2         3.9340   -0.2762    0.0000 H       8  LEU8        0.0290
    108 HG          3.0697   -0.4981    0.0000 H       8  LEU8        0.0296
    109 H           5.6318   -0.7136    0.0000 H       8  LEU8        0.1495
    110 H           6.9939    3.7995    0.0000 H       4  PHE4        0.1495
    111 HA          7.6995    2.0806    0.0000 H       4  PHE4        0.0598
    112 HA          8.1381   -0.9764    0.0000 H       7  MET7        0.0595
    113 HD11        2.3724   -1.9024    0.0000 H       8  LEU8        0.0232
    114 HD12        2.8108   -2.6617    0.0000 H       8  LEU8        0.0232
    115 HD13        3.5702   -2.2233    0.0000 H       8  LEU8        0.0232
    116 HD21        2.1037   -0.7569    0.0000 H       8  LEU8        0.0232
    117 HD22        1.6653   -1.5162    0.0000 H       8  LEU8        0.0232
    118 HD23        2.4247   -1.9546    0.0000 H       8  LEU8        0.0232
    119 HA          9.6476    0.5277    0.0000 H       6  ILE6        0.0597
    120 HB          8.2258    0.5256    0.0000 H       6  ILE6        0.0321
    121 HA          8.9814    1.7872    0.0000 H       5  VAL5        0.0597
    122 HB1         8.7170    2.0763    0.0000 H       4  PHE4        0.0336
    123 HB2         9.4140    2.4014    0.0000 H       4  PHE4        0.0336
    124 HB1         8.2117   -0.3941    0.0000 H       7  MET7        0.0296
    125 HB2         7.8132    0.2962    0.0000 H       7  MET7        0.0296
    126 HD1         4.7883    2.5554    0.0000 H       3  PHE3        0.0620
    127 HD2         6.9377    4.3590    0.0000 H       3  PHE3        0.0620
    128 H           8.4672   -2.4064    0.0000 H       7  MET7        0.1495
    129 HB          9.0894    0.1410    0.0000 H       5  VAL5        0.0318
    130 H          10.2120    2.6795    0.0000 H       5  VAL5        0.1495
    131 H          10.9950   -0.1305    0.0000 H       6  ILE6        0.1495
    132 HG11        9.5205    1.0933    0.0000 H       6  ILE6        0.0266
    133 HG12        9.2155    1.8297    0.0000 H       6  ILE6        0.0266
    134 HG21        7.6980   -0.1276    0.0000 H       6  ILE6        0.0233
    135 HG22        7.8124   -0.9969    0.0000 H       6  ILE6        0.0233
    136 HG23        8.6817   -0.8825    0.0000 H       6  ILE6        0.0233
    137 HG1         6.1245    0.3213    0.0000 H       7  MET7        0.0377
    138 HG2         6.5231   -0.3690    0.0000 H       7  MET7        0.0377
    139 HE1         3.7470    3.7964    0.0000 H       3  PHE3        0.0618
    140 HE2         5.8964    5.5999    0.0000 H       3  PHE3        0.0618
    141 HG11        9.7324   -0.4743    0.0000 H       5  VAL5        0.0233
    142 HG12       10.6059   -0.3979    0.0000 H       5  VAL5        0.0233
    143 HG13       10.5294    0.4756    0.0000 H       5  VAL5        0.0233
    144 HG21        8.1575    1.1769    0.0000 H       5  VAL5        0.0233
    145 HG22        7.6545    0.4587    0.0000 H       5  VAL5        0.0233
    146 HG23        8.3727   -0.0443    0.0000 H       5  VAL5        0.0233
    147 HZ          4.3011    5.3187    0.0000 H       3  PHE3        0.0618
    148 HD11        8.5133    2.3804    0.0000 H       6  ILE6        0.0230
    149 HD12        7.6440    2.2659    0.0000 H       6  ILE6        0.0230
    150 HD13        7.7584    1.3966    0.0000 H       6  ILE6        0.0230
    151 HD1        10.6996    2.6893    0.0000 H       4  PHE4        0.0620
    152 HD2         8.5501    4.4929    0.0000 H       4  PHE4        0.0620
    153 HE1        11.7409    3.9303    0.0000 H       4  PHE4        0.0618
    154 HE2         9.5914    5.7339    0.0000 H       4  PHE4        0.0618
    155 HZ         11.1868    5.4526    0.0000 H       4  PHE4        0.0618
    156 HE1         7.8276    0.7767    0.0000 H       7  MET7        0.0340
    157 HE2         8.3305    1.4949    0.0000 H       7  MET7        0.0340
    158 HE3         7.6123    1.9978    0.0000 H       7  MET7        0.0340
@<TRIPOS>BOND
     1     1    62    1
     2     1    75    1
     3     2    25    2
     4     3    29    2
     5     4    32    2
     6     5    36    2
     7     6    41    2
     8     7    45    2
     9     8    56    2
    10     9    57    2
    11    10    59    2
    12    11    20    1
    13    11    24    1
    14    11    29   am
    15    12    22    1
    16    12    25   am
    17    12    26    1
    18    13    30    1
    19    13    36   am
    20    13    92    1
    21    14    32   am
    22    14    35    1
    23    14    95    1
    24    15    37    1
    25    15    45   am
    26    15   109    1
    27    16    41   am
    28    16    44    1
    29    16   110    1
    30    17    46    1
    31    17    57   am
    32    17   128    1
    33    18    52    1
    34    18    56   am
    35    18   130    1
    36    19    49    1
    37    19    59   am
    38    19   131    1
    39    20    21    1
    40    20    25    1
    41    20    76    1
    42    21    23    1
    43    21    77    1
    44    21    78    1
    45    22    27    1
    46    22    32    1
    47    22    79    1
    48    23    24    1
    49    23    80    1
    50    23    81    1
    51    24    82    1
    52    24    83    1
    53    26    28    1
    54    26    84    1
    55    26    85    1
    56    27    28    1
    57    27    86    1
    58    27    87    1
    59    28    88    1
    60    28    89    1
    61    29    30    1
    62    30    31    1
    63    30    90    1
    64    31    33    1
    65    31    34    1
    66    31    91    1
    67    33    38    1
    68    33    93    1
    69    33    94    1
    70    34    96    1
    71    34    97    1
    72    34    98    1
    73    35    39    1
    74    35    41    1
    75    35    99    1
    76    36    37    1
    77    37    40    1
    78    37   100    1
    79    38   101    1
    80    38   102    1
    81    38   103    1
    82    39    43    1
    83    39   104    1
    84    39   105    1
    85    40    42    1
    86    40   106    1
    87    40   107    1
    88    42    47    1
    89    42    48    1
    90    42   108    1
    91    43    54   ar
    92    43    55   ar
    93    44    51    1
    94    44    56    1
    95    44   111    1
    96    45    46    1
    97    46    53    1
    98    46   112    1
    99    47   113    1
   100    47   114    1
   101    47   115    1
   102    48   116    1
   103    48   117    1
   104    48   118    1
   105    49    50    1
   106    49    57    1
   107    49   119    1
   108    50    60    1
   109    50    61    1
   110    50   120    1
   111    51    63    1
   112    51   122    1
   113    51   123    1
   114    52    58    1
   115    52    59    1
   116    52   121    1
   117    53    62    1
   118    53   124    1
   119    53   125    1
   120    54    64   ar
   121    54   126    1
   122    55    65   ar
   123    55   127    1
   124    58    66    1
   125    58    67    1
   126    58   129    1
   127    60    69    1
   128    60   132    1
   129    60   133    1
   130    61   134    1
   131    61   135    1
   132    61   136    1
   133    62   137    1
   134    62   138    1
   135    63    70   ar
   136    63    71   ar
   137    64    68   ar
   138    64   139    1
   139    65    68   ar
   140    65   140    1
   141    66   141    1
   142    66   142    1
   143    66   143    1
   144    67   144    1
   145    67   145    1
   146    67   146    1
   147    68   147    1
   148    69   148    1
   149    69   149    1
   150    69   150    1
   151    70    72   ar
   152    70   151    1
   153    71    73   ar
   154    71   152    1
   155    72    74   ar
   156    72   153    1
   157    73    74   ar
   158    73   154    1
   159    74   155    1
   160    75   156    1
   161    75   157    1
   162    75   158    1
