@<TRIPOS>MOLECULE
IMPHY010860
 37 39 0 0 0
SMALL
GASTEIGER

@<TRIPOS>ATOM
      1 O           3.8192   -0.5903    0.0000 O.3     1  UNL1       -0.4533
      2 O           6.3882   -0.2813    0.0000 O.3     1  UNL1       -0.3870
      3 O           2.0000    2.3504    0.0000 O.2     1  UNL1       -0.2756
      4 O           3.5404   -2.3504    0.0000 O.2     1  UNL1       -0.2504
      5 N           3.5047    1.4063    0.0000 N.am    1  UNL1       -0.2945
      6 C           4.6282   -0.0025    0.0000 C.3     1  UNL1        0.1581
      7 C           3.7272    0.4314    0.0000 C.3     1  UNL1        0.0687
      8 C           5.4372   -0.5903    0.0000 C.3     1  UNL1        0.1092
      9 C           5.5291    0.4314    0.0000 C.3     1  UNL1       -0.0085
     10 C           2.8725   -0.0763    0.0000 C.3     1  UNL1       -0.0222
     11 C           5.1282   -1.5414    0.0000 C.3     1  UNL1        0.0833
     12 C           5.7517    1.4063    0.0000 C.3     1  UNL1       -0.0479
     13 C           4.1282    2.1881    0.0000 C.3     1  UNL1        0.0151
     14 C           2.1245    0.5784    0.0000 C.3     1  UNL1        0.0260
     15 C           5.1282    2.1881    0.0000 C.3     1  UNL1       -0.0370
     16 C           2.5144    1.4928    0.0000 C.2     1  UNL1        0.2160
     17 C           4.1282   -1.5414    0.0000 C.2     1  UNL1        0.3132
     18 C           5.7160   -2.3504    0.0000 C.3     1  UNL1       -0.0497
     19 H           4.3918    0.9613    0.0000 H       1  UNL1        0.0541
     20 H           5.8756   -1.0287    0.0000 H       1  UNL1        0.0642
     21 H           5.6671   -0.1731    0.0000 H       1  UNL1        0.0305
     22 H           6.1492    0.4314    0.0000 H       1  UNL1        0.0305
     23 H           2.4174   -0.4973    0.0000 H       1  UNL1        0.0289
     24 H           3.2434   -0.5731    0.0000 H       1  UNL1        0.0289
     25 H           4.8467   -2.0938    0.0000 H       1  UNL1        0.0438
     26 H           6.3103    1.1373    0.0000 H       1  UNL1        0.0267
     27 H           6.1382    1.8910    0.0000 H       1  UNL1        0.0267
     28 H           4.2661    2.7926    0.0000 H       1  UNL1        0.0465
     29 H           3.5696    2.4571    0.0000 H       1  UNL1        0.0465
     30 H           1.5829    0.8802    0.0000 H       1  UNL1        0.0359
     31 H           1.7674    0.0715    0.0000 H       1  UNL1        0.0359
     32 H           5.6868    2.4571    0.0000 H       1  UNL1        0.0280
     33 H           4.9902    2.7926    0.0000 H       1  UNL1        0.0280
     34 H           5.2144   -2.7148    0.0000 H       1  UNL1        0.0238
     35 H           6.0804   -2.8520    0.0000 H       1  UNL1        0.0238
     36 H           6.2176   -1.9860    0.0000 H       1  UNL1        0.0238
     37 H           6.8490   -0.6962    0.0000 H       1  UNL1        0.2100
@<TRIPOS>BOND
     1     6     1    1
     2     1    17    1
     3     8     2    1
     4     2    37    1
     5     3    16    2
     6     4    17    2
     7     5     7    1
     8     5    13    1
     9     5    16   am
    10     6     7    1
    11     6     8    1
    12     6     9    1
    13     7    10    1
    14     7    19    1
    15     8    11    1
    16     8    20    1
    17     9    12    1
    18     9    21    1
    19     9    22    1
    20    10    14    1
    21    10    23    1
    22    10    24    1
    23    11    17    1
    24    11    18    1
    25    11    25    1
    26    12    15    1
    27    12    26    1
    28    12    27    1
    29    13    15    1
    30    13    28    1
    31    13    29    1
    32    14    16    1
    33    14    30    1
    34    14    31    1
    35    15    32    1
    36    15    33    1
    37    18    34    1
    38    18    35    1
    39    18    36    1
