@<TRIPOS>MOLECULE
IMPHY011695
 19 18 0 0 0
SMALL
GASTEIGER

@<TRIPOS>ATOM
      1 O           2.0000    1.0000    0.0000 O.3     1  UNL1       -0.3910
      2 C           4.5981   -0.5000    0.0000 C.3     1  UNL1       -0.0349
      3 C           5.4641   -1.0000    0.0000 C.3     1  UNL1       -0.0525
      4 C           3.7320   -1.0000    0.0000 C.2     1  UNL1       -0.0858
      5 C           6.3301   -0.5000    0.0000 C.3     1  UNL1       -0.0650
      6 C           2.8660   -0.5000    0.0000 C.2     1  UNL1       -0.0629
      7 C           2.8660    0.5000    0.0000 C.3     1  UNL1        0.0624
      8 H           4.9966   -0.0251    0.0000 H       1  UNL1        0.0307
      9 H           4.1996   -0.0251    0.0000 H       1  UNL1        0.0307
     10 H           5.0656   -1.4750    0.0000 H       1  UNL1        0.0266
     11 H           5.8626   -1.4750    0.0000 H       1  UNL1        0.0266
     12 H           3.7320   -1.6200    0.0000 H       1  UNL1        0.0570
     13 H           6.6401   -1.0369    0.0000 H       1  UNL1        0.0230
     14 H           6.8671   -0.1900    0.0000 H       1  UNL1        0.0230
     15 H           6.0201    0.0369    0.0000 H       1  UNL1        0.0230
     16 H           2.3291   -0.8100    0.0000 H       1  UNL1        0.0591
     17 H           3.4766    0.3923    0.0000 H       1  UNL1        0.0601
     18 H           3.0781    1.0826    0.0000 H       1  UNL1        0.0601
     19 H           2.0000    1.6200    0.0000 H       1  UNL1        0.2098
@<TRIPOS>BOND
     1     1     7    1
     2     1    19    1
     3     2     3    1
     4     2     4    1
     5     2     8    1
     6     2     9    1
     7     3     5    1
     8     3    10    1
     9     3    11    1
    10     4     6    2
    11     4    12    1
    12     5    13    1
    13     5    14    1
    14     5    15    1
    15     6     7    1
    16     6    16    1
    17     7    17    1
    18     7    18    1
