@<TRIPOS>MOLECULE
IMPHY002481
 58 61 0 0 0
SMALL
GASTEIGER

@<TRIPOS>ATOM
      1 O           6.3582    1.1852    0.0000 O.3     1  UNL1       -0.4493
      2 O           8.1421    0.8109    0.0000 O.3     1  UNL1       -0.4491
      3 O           6.5460   -1.2991    0.0000 O.3     1  UNL1       -0.3702
      4 O           7.2151   -2.0422    0.0000 O.2     1  UNL1       -0.2881
      5 O           8.8672   -2.6154    0.0000 O.3     1  UNL1       -0.5055
      6 O           2.8687    0.2810    0.0000 O.3     1  UNL1       -0.5064
      7 O          11.5069   -0.2570    0.0000 O.3     1  UNL1       -0.5062
      8 C           6.8550   -0.3480    0.0000 C.3     1  UNL1        0.2311
      9 C           7.1640    0.6030    0.0000 C.3     1  UNL1        0.2833
     10 C           5.8609   -0.3455    0.0000 C.ar    1  UNL1        0.0411
     11 C           5.5545    0.6002    0.0000 C.ar    1  UNL1        0.1386
     12 C           7.5241   -1.0912    0.0000 C.2     1  UNL1        0.2135
     13 C           8.5022   -0.8833    0.0000 C.ar    1  UNL1        0.1045
     14 C           4.5453    0.8320    0.0000 C.ar    1  UNL1        0.0398
     15 C           8.8113    0.0678    0.0000 C.ar    1  UNL1        0.1427
     16 C           5.1793   -1.1250    0.0000 C.ar    1  UNL1       -0.0482
     17 C           9.1872   -1.6680    0.0000 C.ar    1  UNL1        0.1379
     18 C           3.8459    0.0685    0.0000 C.ar    1  UNL1        0.1238
     19 C           4.2482    1.7868    0.0000 C.3     1  UNL1       -0.0023
     20 C           4.1650   -0.9166    0.0000 C.ar    1  UNL1       -0.0193
     21 C           9.8267    0.3000    0.0000 C.ar    1  UNL1        0.0229
     22 C          10.2077   -1.4593    0.0000 C.ar    1  UNL1        0.0400
     23 C          10.5296   -0.4686    0.0000 C.ar    1  UNL1        0.1273
     24 C          10.8740   -2.2050    0.0000 C.3     1  UNL1       -0.0023
     25 C           3.2727    2.0069    0.0000 C.2     1  UNL1       -0.0807
     26 C          11.8529   -2.0009    0.0000 C.2     1  UNL1       -0.0807
     27 C           2.9755    2.9617    0.0000 C.2     1  UNL1       -0.0793
     28 C          12.5192   -2.7466    0.0000 C.2     1  UNL1       -0.0793
     29 C           2.0000    3.1817    0.0000 C.3     1  UNL1       -0.0440
     30 C           3.6538    3.6964    0.0000 C.3     1  UNL1       -0.0440
     31 C          13.4981   -2.5425    0.0000 C.3     1  UNL1       -0.0440
     32 C          12.2065   -3.6964    0.0000 C.3     1  UNL1       -0.0440
     33 H           7.3396    1.4347    0.0000 H       1  UNL1        0.1245
     34 H           5.3772   -1.7125    0.0000 H       1  UNL1        0.0624
     35 H           5.9395   -1.4280    0.0000 H       1  UNL1        0.2115
     36 H           4.8631    1.8655    0.0000 H       1  UNL1        0.0358
     37 H           4.2775    2.4061    0.0000 H       1  UNL1        0.0358
     38 H           3.7515   -1.3786    0.0000 H       1  UNL1        0.0654
     39 H          10.0114    0.8919    0.0000 H       1  UNL1        0.0691
     40 H          10.3469   -2.5315    0.0000 H       1  UNL1        0.0358
     41 H          11.1040   -2.7808    0.0000 H       1  UNL1        0.0358
     42 H           2.8521    1.5513    0.0000 H       1  UNL1        0.0575
     43 H           9.2767   -3.0809    0.0000 H       1  UNL1        0.2922
     44 H           2.4517   -0.1778    0.0000 H       1  UNL1        0.2921
     45 H          12.0468   -1.4120    0.0000 H       1  UNL1        0.0575
     46 H          11.6963    0.3334    0.0000 H       1  UNL1        0.2921
     47 H           4.1094    3.2759    0.0000 H       1  UNL1        0.0274
     48 H           4.0744    4.1520    0.0000 H       1  UNL1        0.0274
     49 H           2.1364    3.7865    0.0000 H       1  UNL1        0.0274
     50 H           1.3952    3.3182    0.0000 H       1  UNL1        0.0274
     51 H           1.8636    2.5769    0.0000 H       1  UNL1        0.0274
     52 H           3.1982    4.1170    0.0000 H       1  UNL1        0.0274
     53 H          13.6247   -3.1494    0.0000 H       1  UNL1        0.0274
     54 H          14.1051   -2.4159    0.0000 H       1  UNL1        0.0274
     55 H          13.3716   -1.9355    0.0000 H       1  UNL1        0.0274
     56 H          11.6176   -3.5026    0.0000 H       1  UNL1        0.0274
     57 H          12.0126   -4.2854    0.0000 H       1  UNL1        0.0274
     58 H          12.7954   -3.8903    0.0000 H       1  UNL1        0.0274
@<TRIPOS>BOND
     1     1     9    1
     2     1    11    1
     3     2     9    1
     4     2    15    1
     5     8     3    1
     6     3    35    1
     7     4    12    2
     8     5    17    1
     9     5    43    1
    10     6    18    1
    11     6    44    1
    12     7    23    1
    13     7    46    1
    14     8     9    1
    15     8    10    1
    16     8    12    1
    17     9    33    1
    18    10    11   ar
    19    10    16   ar
    20    11    14   ar
    21    12    13    1
    22    13    15   ar
    23    13    17   ar
    24    14    18   ar
    25    14    19    1
    26    15    21   ar
    27    16    20   ar
    28    16    34    1
    29    17    22   ar
    30    18    20   ar
    31    19    25    1
    32    19    36    1
    33    19    37    1
    34    20    38    1
    35    21    23   ar
    36    21    39    1
    37    22    23   ar
    38    22    24    1
    39    24    26    1
    40    24    40    1
    41    24    41    1
    42    25    27    2
    43    25    42    1
    44    26    28    2
    45    26    45    1
    46    27    29    1
    47    27    30    1
    48    28    31    1
    49    28    32    1
    50    29    49    1
    51    29    50    1
    52    29    51    1
    53    30    47    1
    54    30    48    1
    55    30    52    1
    56    31    53    1
    57    31    54    1
    58    31    55    1
    59    32    56    1
    60    32    57    1
    61    32    58    1
