@<TRIPOS>MOLECULE
IMPHY014545
 53 54 0 0 0
SMALL
GASTEIGER

@<TRIPOS>ATOM
      1 O           2.0000    3.7567    0.0000 O.2     1  UNL1       -0.3004
      2 O           7.8058   -3.6737    0.0000 O.3     1  UNL1       -0.4775
      3 O           6.0739   -3.6537    0.0000 O.2     1  UNL1       -0.2458
      4 C           4.3660    1.3907    0.0000 C.3     1  UNL1       -0.0219
      5 C           4.3660    2.3907    0.0000 C.3     1  UNL1       -0.0230
      6 C           3.5000    2.8907    0.0000 C.3     1  UNL1        0.0265
      7 C           5.2600    0.8560    0.0000 C.3     1  UNL1       -0.0142
      8 C           3.5000    0.8907    0.0000 C.3     1  UNL1       -0.0468
      9 C           5.2600    2.9254    0.0000 C.3     1  UNL1       -0.0451
     10 C           2.6340    2.3907    0.0000 C.3     1  UNL1       -0.0409
     11 C           2.6340    1.3907    0.0000 C.3     1  UNL1       -0.0517
     12 C           4.3660    0.3907    0.0000 C.3     1  UNL1       -0.0587
     13 C           6.1660    2.4115    0.0000 C.3     1  UNL1       -0.0314
     14 C           6.1660    1.3699    0.0000 C.2     1  UNL1       -0.0730
     15 C           5.2484   -0.1439    0.0000 C.3     1  UNL1       -0.0423
     16 C           4.0000    3.7567    0.0000 C.3     1  UNL1       -0.0528
     17 C           3.0000    3.7567    0.0000 C.2     1  UNL1        0.1264
     18 C           6.1086   -0.6539    0.0000 C.3     1  UNL1       -0.0309
     19 C           7.0301    0.8666    0.0000 C.2     1  UNL1       -0.0992
     20 C           6.0970   -1.6538    0.0000 C.2     1  UNL1       -0.0659
     21 C           5.2253   -2.1438    0.0000 C.3     1  UNL1       -0.0433
     22 C           6.9572   -2.1638    0.0000 C.2     1  UNL1        0.0213
     23 C           6.9456   -3.1637    0.0000 C.2     1  UNL1        0.3295
     24 H           4.3595    3.2407    0.0000 H       1  UNL1        0.0316
     25 H           5.7939    0.5409    0.0000 H       1  UNL1        0.0351
     26 H           3.1015    0.4158    0.0000 H       1  UNL1        0.0271
     27 H           3.8985    0.4158    0.0000 H       1  UNL1        0.0271
     28 H           5.6536    3.4044    0.0000 H       1  UNL1        0.0271
     29 H           4.8554    3.3952    0.0000 H       1  UNL1        0.0271
     30 H           2.4219    2.9733    0.0000 H       1  UNL1        0.0275
     31 H           2.0234    2.2830    0.0000 H       1  UNL1        0.0275
     32 H           2.0234    1.4984    0.0000 H       1  UNL1        0.0266
     33 H           2.4219    0.8081    0.0000 H       1  UNL1        0.0266
     34 H           3.7460    0.3907    0.0000 H       1  UNL1        0.0235
     35 H           4.3660   -0.2293    0.0000 H       1  UNL1        0.0235
     36 H           4.9860    0.3907    0.0000 H       1  UNL1        0.0235
     37 H           6.7769    2.3054    0.0000 H       1  UNL1        0.0310
     38 H           6.3751    2.9952    0.0000 H       1  UNL1        0.0310
     39 H           4.6391   -0.0292    0.0000 H       1  UNL1        0.0274
     40 H           5.0296   -0.7240    0.0000 H       1  UNL1        0.0274
     41 H           4.5369    3.4467    0.0000 H       1  UNL1        0.0239
     42 H           4.3100    4.2937    0.0000 H       1  UNL1        0.0239
     43 H           3.4631    4.0667    0.0000 H       1  UNL1        0.0239
     44 H           3.3100    4.2937    0.0000 H       1  UNL1        0.1032
     45 H           6.7179   -0.7686    0.0000 H       1  UNL1        0.0310
     46 H           6.3274   -0.0738    0.0000 H       1  UNL1        0.0310
     47 H           7.0277    0.2466    0.0000 H       1  UNL1        0.0534
     48 H           7.5682    1.1745    0.0000 H       1  UNL1        0.0534
     49 H           4.9215   -1.6033    0.0000 H       1  UNL1        0.0274
     50 H           4.6848   -2.4475    0.0000 H       1  UNL1        0.0274
     51 H           5.5290   -2.6842    0.0000 H       1  UNL1        0.0274
     52 H           7.4977   -1.8600    0.0000 H       1  UNL1        0.0688
     53 H           7.7987   -4.2937    0.0000 H       1  UNL1        0.2954
@<TRIPOS>BOND
     1     1    17    2
     2     2    23    1
     3     2    53    1
     4     3    23    2
     5     4     5    1
     6     4     7    1
     7     4     8    1
     8     4    12    1
     9     5     6    1
    10     5     9    1
    11     5    24    1
    12     6    10    1
    13     6    16    1
    14     6    17    1
    15     7    14    1
    16     7    15    1
    17     7    25    1
    18     8    11    1
    19     8    26    1
    20     8    27    1
    21     9    13    1
    22     9    28    1
    23     9    29    1
    24    10    11    1
    25    10    30    1
    26    10    31    1
    27    11    32    1
    28    11    33    1
    29    12    34    1
    30    12    35    1
    31    12    36    1
    32    13    14    1
    33    13    37    1
    34    13    38    1
    35    14    19    2
    36    15    18    1
    37    15    39    1
    38    15    40    1
    39    16    41    1
    40    16    42    1
    41    16    43    1
    42    17    44    1
    43    18    20    1
    44    18    45    1
    45    18    46    1
    46    19    47    1
    47    19    48    1
    48    20    21    1
    49    20    22    2
    50    21    49    1
    51    21    50    1
    52    21    51    1
    53    22    23    1
    54    22    52    1
