@<TRIPOS>MOLECULE
IMPHY013840
 27 26 0 0 0
SMALL
GASTEIGER

@<TRIPOS>ATOM
      1 O           5.4641   -1.0950    0.0000 O.3     1  UNL1       -0.3915
      2 C           5.4641   -0.0950    0.0000 C.3     1  UNL1        0.0576
      3 C           6.3301    0.4050    0.0000 C.3     1  UNL1       -0.0206
      4 C           4.5981    0.4050    0.0000 C.3     1  UNL1       -0.0266
      5 C           3.7320   -0.0950    0.0000 C.3     1  UNL1       -0.0510
      6 C           2.8660    0.4050    0.0000 C.3     1  UNL1       -0.0558
      7 C           7.1962   -0.0950    0.0000 C.3     1  UNL1       -0.0603
      8 C           6.3301    1.4050    0.0000 C.3     1  UNL1       -0.0603
      9 C           2.0000   -0.0950    0.0000 C.3     1  UNL1       -0.0653
     10 H           6.0010   -0.4050    0.0000 H       1  UNL1        0.0596
     11 H           6.8671    0.7150    0.0000 H       1  UNL1        0.0320
     12 H           4.9966    0.8799    0.0000 H       1  UNL1        0.0290
     13 H           4.1996    0.8799    0.0000 H       1  UNL1        0.0290
     14 H           3.3335   -0.5699    0.0000 H       1  UNL1        0.0266
     15 H           4.1306   -0.5699    0.0000 H       1  UNL1        0.0266
     16 H           3.2646    0.8799    0.0000 H       1  UNL1        0.0263
     17 H           2.4675    0.8799    0.0000 H       1  UNL1        0.0263
     18 H           6.8862   -0.6319    0.0000 H       1  UNL1        0.0233
     19 H           7.7331   -0.4050    0.0000 H       1  UNL1        0.0233
     20 H           7.5062    0.4419    0.0000 H       1  UNL1        0.0233
     21 H           6.9501    1.4050    0.0000 H       1  UNL1        0.0233
     22 H           6.3301    2.0250    0.0000 H       1  UNL1        0.0233
     23 H           5.7101    1.4050    0.0000 H       1  UNL1        0.0233
     24 H           4.9272   -1.4050    0.0000 H       1  UNL1        0.2098
     25 H           1.6900    0.4419    0.0000 H       1  UNL1        0.0230
     26 H           1.4631   -0.4050    0.0000 H       1  UNL1        0.0230
     27 H           2.3100   -0.6319    0.0000 H       1  UNL1        0.0230
@<TRIPOS>BOND
     1     1     2    1
     2     1    24    1
     3     2     3    1
     4     2     4    1
     5     2    10    1
     6     3     7    1
     7     3     8    1
     8     3    11    1
     9     4     5    1
    10     4    12    1
    11     4    13    1
    12     5     6    1
    13     5    14    1
    14     5    15    1
    15     6     9    1
    16     6    16    1
    17     6    17    1
    18     7    18    1
    19     7    19    1
    20     7    20    1
    21     8    21    1
    22     8    22    1
    23     8    23    1
    24     9    25    1
    25     9    26    1
    26     9    27    1
