@<TRIPOS>MOLECULE
IMPHY008361
 57 58 0 0 0
SMALL
GASTEIGER

@<TRIPOS>ATOM
      1 O           5.9820   -4.2878    0.0000 O.3     1  UNL1       -0.3883
      2 O           3.7320    3.8148    0.0000 O.3     1  UNL1       -0.4775
      3 O           2.2320    2.9488    0.0000 O.2     1  UNL1       -0.2458
      4 C           4.5981   -2.8814    0.0000 C.3     1  UNL1       -0.0002
      5 C           4.5981   -1.8814    0.0000 C.3     1  UNL1       -0.0274
      6 C           3.7320   -1.3814    0.0000 C.3     1  UNL1       -0.0258
      7 C           5.4920   -3.4160    0.0000 C.3     1  UNL1        0.0689
      8 C           2.8660   -1.8814    0.0000 C.3     1  UNL1       -0.0382
      9 C           3.7320   -3.3814    0.0000 C.3     1  UNL1       -0.0445
     10 C           5.4920   -1.3467    0.0000 C.3     1  UNL1       -0.0490
     11 C           2.8660   -2.8814    0.0000 C.3     1  UNL1       -0.0494
     12 C           6.3981   -2.9022    0.0000 C.3     1  UNL1       -0.0237
     13 C           6.3981   -1.8606    0.0000 C.3     1  UNL1       -0.0502
     14 C           3.2320   -0.5153    0.0000 C.3     1  UNL1       -0.0434
     15 C           4.4245   -3.8662    0.0000 C.3     1  UNL1       -0.0567
     16 C           4.2320   -0.5153    0.0000 C.3     1  UNL1       -0.0590
     17 C           5.1392   -4.3517    0.0000 C.3     1  UNL1       -0.0356
     18 C           2.0000   -1.3814    0.0000 C.3     1  UNL1       -0.0619
     19 C           3.7320    0.3507    0.0000 C.3     1  UNL1       -0.0310
     20 C           3.2320    1.2167    0.0000 C.2     1  UNL1       -0.0659
     21 C           2.2320    1.2167    0.0000 C.3     1  UNL1       -0.0433
     22 C           3.7320    2.0827    0.0000 C.2     1  UNL1        0.0213
     23 C           3.2320    2.9488    0.0000 C.2     1  UNL1        0.3295
     24 H           4.5933   -1.2614    0.0000 H       1  UNL1        0.0312
     25 H           2.8660   -1.2614    0.0000 H       1  UNL1        0.0303
     26 H           3.3335   -3.8563    0.0000 H       1  UNL1        0.0272
     27 H           4.1306   -3.8563    0.0000 H       1  UNL1        0.0272
     28 H           5.8856   -0.8677    0.0000 H       1  UNL1        0.0268
     29 H           5.0874   -0.8769    0.0000 H       1  UNL1        0.0268
     30 H           2.2554   -2.7737    0.0000 H       1  UNL1        0.0268
     31 H           2.6540   -3.4640    0.0000 H       1  UNL1        0.0268
     32 H           6.6071   -3.4859    0.0000 H       1  UNL1        0.0293
     33 H           7.0089   -2.7961    0.0000 H       1  UNL1        0.0293
     34 H           7.0089   -1.9666    0.0000 H       1  UNL1        0.0266
     35 H           6.6071   -1.2769    0.0000 H       1  UNL1        0.0266
     36 H           2.7571   -0.1168    0.0000 H       1  UNL1        0.0274
     37 H           2.7571   -0.9139    0.0000 H       1  UNL1        0.0274
     38 H           3.8139   -3.7586    0.0000 H       1  UNL1        0.0236
     39 H           4.3169   -4.4768    0.0000 H       1  UNL1        0.0236
     40 H           5.0351   -3.9738    0.0000 H       1  UNL1        0.0236
     41 H           4.7690   -0.8253    0.0000 H       1  UNL1        0.0235
     42 H           4.5420    0.0216    0.0000 H       1  UNL1        0.0235
     43 H           3.6951   -0.2053    0.0000 H       1  UNL1        0.0235
     44 H           4.5591   -4.1330    0.0000 H       1  UNL1        0.0257
     45 H           4.9204   -4.9318    0.0000 H       1  UNL1        0.0257
     46 H           5.7193   -4.5705    0.0000 H       1  UNL1        0.0257
     47 H           2.3100   -0.8444    0.0000 H       1  UNL1        0.0233
     48 H           1.4631   -1.0714    0.0000 H       1  UNL1        0.0233
     49 H           1.6900   -1.9183    0.0000 H       1  UNL1        0.0233
     50 H           4.2070   -0.0478    0.0000 H       1  UNL1        0.0310
     51 H           4.2070    0.7492    0.0000 H       1  UNL1        0.0310
     52 H           6.6019   -4.2950    0.0000 H       1  UNL1        0.2102
     53 H           2.2320    1.8367    0.0000 H       1  UNL1        0.0274
     54 H           1.6120    1.2167    0.0000 H       1  UNL1        0.0274
     55 H           2.2320    0.5967    0.0000 H       1  UNL1        0.0274
     56 H           4.3520    2.0827    0.0000 H       1  UNL1        0.0688
     57 H           3.4220    4.3517    0.0000 H       1  UNL1        0.2954
@<TRIPOS>BOND
     1     1     7    1
     2     1    52    1
     3     2    23    1
     4     2    57    1
     5     3    23    2
     6     4     5    1
     7     4     7    1
     8     4     9    1
     9     4    15    1
    10     5     6    1
    11     5    10    1
    12     5    24    1
    13     6     8    1
    14     6    14    1
    15     6    16    1
    16     7    12    1
    17     7    17    1
    18     8    11    1
    19     8    18    1
    20     8    25    1
    21     9    11    1
    22     9    26    1
    23     9    27    1
    24    10    13    1
    25    10    28    1
    26    10    29    1
    27    11    30    1
    28    11    31    1
    29    12    13    1
    30    12    32    1
    31    12    33    1
    32    13    34    1
    33    13    35    1
    34    14    19    1
    35    14    36    1
    36    14    37    1
    37    15    38    1
    38    15    39    1
    39    15    40    1
    40    16    41    1
    41    16    42    1
    42    16    43    1
    43    17    44    1
    44    17    45    1
    45    17    46    1
    46    18    47    1
    47    18    48    1
    48    18    49    1
    49    19    20    1
    50    19    50    1
    51    19    51    1
    52    20    21    1
    53    20    22    2
    54    21    53    1
    55    21    54    1
    56    21    55    1
    57    22    23    1
    58    22    56    1
