@<TRIPOS>MOLECULE
IMPHY007757
 79 83 0 0 0
SMALL
GASTEIGER

@<TRIPOS>ATOM
      1 O           2.5357   -2.5933    0.0000 O.3     1  UNL1       -0.3912
      2 C           7.0628   -1.0410    0.0000 C.3     1  UNL1       -0.0194
      3 C           6.1968   -0.5410    0.0000 C.3     1  UNL1       -0.0257
      4 C           5.2868   -1.0478    0.0000 C.3     1  UNL1       -0.0250
      5 C           7.9288   -0.5410    0.0000 C.3     1  UNL1       -0.0051
      6 C           5.2787   -2.0894    0.0000 C.3     1  UNL1       -0.0278
      7 C           7.0789   -2.0825    0.0000 C.3     1  UNL1       -0.0463
      8 C           6.1808   -2.6102    0.0000 C.3     1  UNL1       -0.0486
      9 C           4.3433   -2.6391    0.0000 C.3     1  UNL1       -0.0056
     10 C           7.9288    0.4590    0.0000 C.2     1  UNL1       -0.0631
     11 C           4.3599   -0.4837    0.0000 C.3     1  UNL1       -0.0447
     12 C           6.1968    0.4590    0.0000 C.3     1  UNL1       -0.0306
     13 C           8.8228   -1.0756    0.0000 C.3     1  UNL1       -0.0426
     14 C           8.8228    0.9937    0.0000 C.3     1  UNL1       -0.0098
     15 C           9.7288    0.4799    0.0000 C.3     1  UNL1       -0.0075
     16 C           7.7056   -1.8070    0.0000 C.3     1  UNL1       -0.0585
     17 C           3.4037   -2.0966    0.0000 C.3     1  UNL1        0.0606
     18 C           5.2945   -0.0478    0.0000 C.3     1  UNL1       -0.0590
     19 C           3.4120   -1.0117    0.0000 C.3     1  UNL1       -0.0258
     20 C           7.0628    0.9590    0.0000 C.2     1  UNL1       -0.0836
     21 C           9.7288   -0.5618    0.0000 C.3     1  UNL1       -0.0428
     22 C           8.2709   -1.4806    0.0000 C.3     1  UNL1       -0.0553
     23 C           8.7977    2.0784    0.0000 C.3     1  UNL1       -0.0371
     24 C           3.8467   -3.5071    0.0000 C.3     1  UNL1       -0.0572
     25 C           4.8466   -3.5032    0.0000 C.3     1  UNL1       -0.0572
     26 C           9.7288    2.6353    0.0000 C.3     1  UNL1       -0.0163
     27 C          10.6726    1.0151    0.0000 C.2     1  UNL1       -0.0809
     28 C          10.5987   -0.0135    0.0000 C.3     1  UNL1       -0.0555
     29 C          10.6726    2.1001    0.0000 C.2     1  UNL1       -0.0817
     30 C          10.2188    3.5071    0.0000 C.3     1  UNL1       -0.0563
     31 C           9.2188    3.4955    0.0000 C.3     1  UNL1       -0.0563
     32 H           6.7337   -0.2310    0.0000 H       1  UNL1        0.0315
     33 H           5.2811   -2.7094    0.0000 H       1  UNL1        0.0312
     34 H           7.2969   -2.6629    0.0000 H       1  UNL1        0.0271
     35 H           7.6880   -1.9670    0.0000 H       1  UNL1        0.0271
     36 H           5.7835   -3.0862    0.0000 H       1  UNL1        0.0268
     37 H           6.5818   -3.0831    0.0000 H       1  UNL1        0.0268
     38 H           4.7681   -0.0171    0.0000 H       1  UNL1        0.0271
     39 H           3.9700   -0.0017    0.0000 H       1  UNL1        0.0271
     40 H           5.9847    1.0416    0.0000 H       1  UNL1        0.0310
     41 H           5.5862    0.3514    0.0000 H       1  UNL1        0.0310
     42 H           8.4182   -1.5454    0.0000 H       1  UNL1        0.0274
     43 H           9.2164   -1.5546    0.0000 H       1  UNL1        0.0274
     44 H           9.3549    1.3119    0.0000 H       1  UNL1        0.0354
     45 H           7.2306   -2.2055    0.0000 H       1  UNL1        0.0235
     46 H           8.1041   -2.2820    0.0000 H       1  UNL1        0.0235
     47 H           8.1805   -1.4085    0.0000 H       1  UNL1        0.0235
     48 H           3.4025   -2.7166    0.0000 H       1  UNL1        0.0599
     49 H           5.9145   -0.0526    0.0000 H       1  UNL1        0.0235
     50 H           5.2993    0.5721    0.0000 H       1  UNL1        0.0235
     51 H           4.6745   -0.0431    0.0000 H       1  UNL1        0.0235
     52 H           3.2075   -0.4264    0.0000 H       1  UNL1        0.0290
     53 H           2.8004   -1.1131    0.0000 H       1  UNL1        0.0290
     54 H           7.0628    1.5790    0.0000 H       1  UNL1        0.0572
     55 H           9.9379   -1.1455    0.0000 H       1  UNL1        0.0274
     56 H          10.3397   -0.4557    0.0000 H       1  UNL1        0.0274
     57 H           7.6884   -1.6927    0.0000 H       1  UNL1        0.0238
     58 H           8.4830   -2.0632    0.0000 H       1  UNL1        0.0238
     59 H           8.8535   -1.2685    0.0000 H       1  UNL1        0.0238
     60 H           8.5752    2.6571    0.0000 H       1  UNL1        0.0279
     61 H           8.1894    1.9582    0.0000 H       1  UNL1        0.0279
     62 H           3.3085   -3.1992    0.0000 H       1  UNL1        0.0236
     63 H           3.5387   -4.0452    0.0000 H       1  UNL1        0.0236
     64 H           4.3848   -3.8150    0.0000 H       1  UNL1        0.0236
     65 H           4.3109   -3.8153    0.0000 H       1  UNL1        0.0236
     66 H           5.1587   -4.0390    0.0000 H       1  UNL1        0.0236
     67 H           5.3824   -3.1912    0.0000 H       1  UNL1        0.0236
     68 H          11.2084    0.7030    0.0000 H       1  UNL1        0.0575
     69 H          10.2928   -0.5528    0.0000 H       1  UNL1        0.0238
     70 H          11.1380   -0.3193    0.0000 H       1  UNL1        0.0238
     71 H          10.9045    0.5259    0.0000 H       1  UNL1        0.0238
     72 H          11.2084    2.4122    0.0000 H       1  UNL1        0.0575
     73 H           2.0000   -2.2812    0.0000 H       1  UNL1        0.2098
     74 H           9.7522    3.8117    0.0000 H       1  UNL1        0.0238
     75 H           8.9027    4.0288    0.0000 H       1  UNL1        0.0238
     76 H           8.6855    3.1793    0.0000 H       1  UNL1        0.0238
     77 H          10.7593    3.2033    0.0000 H       1  UNL1        0.0238
     78 H          10.5226    4.0476    0.0000 H       1  UNL1        0.0238
     79 H           9.6783    3.8108    0.0000 H       1  UNL1        0.0238
@<TRIPOS>BOND
     1     1    17    1
     2     1    73    1
     3     2     3    1
     4     2     5    1
     5     2     7    1
     6     2    16    1
     7     3     4    1
     8     3    12    1
     9     3    32    1
    10     4     6    1
    11     4    11    1
    12     4    18    1
    13     5    10    1
    14     5    13    1
    15     5    22    1
    16     6     8    1
    17     6     9    1
    18     6    33    1
    19     7     8    1
    20     7    34    1
    21     7    35    1
    22     8    36    1
    23     8    37    1
    24     9    17    1
    25     9    24    1
    26     9    25    1
    27    10    14    1
    28    10    20    2
    29    11    19    1
    30    11    38    1
    31    11    39    1
    32    12    20    1
    33    12    40    1
    34    12    41    1
    35    13    21    1
    36    13    42    1
    37    13    43    1
    38    14    15    1
    39    14    23    1
    40    14    44    1
    41    15    21    1
    42    15    27    1
    43    15    28    1
    44    16    45    1
    45    16    46    1
    46    16    47    1
    47    17    19    1
    48    17    48    1
    49    18    49    1
    50    18    50    1
    51    18    51    1
    52    19    52    1
    53    19    53    1
    54    20    54    1
    55    21    55    1
    56    21    56    1
    57    22    57    1
    58    22    58    1
    59    22    59    1
    60    23    26    1
    61    23    60    1
    62    23    61    1
    63    24    62    1
    64    24    63    1
    65    24    64    1
    66    25    65    1
    67    25    66    1
    68    25    67    1
    69    26    29    1
    70    26    30    1
    71    26    31    1
    72    27    29    2
    73    27    68    1
    74    28    69    1
    75    28    70    1
    76    28    71    1
    77    29    72    1
    78    30    77    1
    79    30    78    1
    80    30    79    1
    81    31    74    1
    82    31    75    1
    83    31    76    1
