@<TRIPOS>MOLECULE
IMPHY015625
 24 23 0 0 0
SMALL
GASTEIGER

@<TRIPOS>ATOM
      1 S           7.1962   -0.2500    0.0000 S.3     1  UNL1       -0.0811
      2 S           4.5981    0.2500    0.0000 S.3     1  UNL1       -0.0811
      3 S           6.3301    0.2500    0.0000 S.3     1  UNL1       -0.0129
      4 S           5.4641   -0.2500    0.0000 S.3     1  UNL1       -0.0129
      5 C           8.9282   -0.2500    0.0000 C.3     1  UNL1       -0.0460
      6 C           2.8660    0.2500    0.0000 C.3     1  UNL1       -0.0460
      7 C           8.0622    0.2500    0.0000 C.3     1  UNL1        0.0045
      8 C           3.7320   -0.2500    0.0000 C.3     1  UNL1        0.0045
      9 C           9.7942    0.2500    0.0000 C.3     1  UNL1       -0.0645
     10 C           2.0000   -0.2500    0.0000 C.3     1  UNL1       -0.0645
     11 H           8.5297   -0.7249    0.0000 H       1  UNL1        0.0271
     12 H           9.3267   -0.7249    0.0000 H       1  UNL1        0.0271
     13 H           3.2646    0.7249    0.0000 H       1  UNL1        0.0271
     14 H           2.4675    0.7249    0.0000 H       1  UNL1        0.0271
     15 H           8.4607    0.7249    0.0000 H       1  UNL1        0.0385
     16 H           7.6636    0.7249    0.0000 H       1  UNL1        0.0385
     17 H           3.3335   -0.7249    0.0000 H       1  UNL1        0.0385
     18 H           4.1306   -0.7249    0.0000 H       1  UNL1        0.0385
     19 H          10.1042   -0.2869    0.0000 H       1  UNL1        0.0230
     20 H          10.3312    0.5600    0.0000 H       1  UNL1        0.0230
     21 H           9.4842    0.7869    0.0000 H       1  UNL1        0.0230
     22 H           1.6900    0.2869    0.0000 H       1  UNL1        0.0230
     23 H           1.4631   -0.5600    0.0000 H       1  UNL1        0.0230
     24 H           2.3100   -0.7869    0.0000 H       1  UNL1        0.0230
@<TRIPOS>BOND
     1     1     3    1
     2     1     7    1
     3     2     4    1
     4     2     8    1
     5     3     4    1
     6     5     7    1
     7     5     9    1
     8     5    11    1
     9     5    12    1
    10     6     8    1
    11     6    10    1
    12     6    13    1
    13     6    14    1
    14     7    15    1
    15     7    16    1
    16     8    17    1
    17     8    18    1
    18     9    19    1
    19     9    20    1
    20     9    21    1
    21    10    22    1
    22    10    23    1
    23    10    24    1
