@<TRIPOS>MOLECULE
IMPHY012909
 38 38 0 0 0
SMALL
GASTEIGER

@<TRIPOS>ATOM
      1 O           4.5981    1.2500    0.0000 O.3     1  UNL1       -0.4221
      2 O           6.3301    1.2500    0.0000 O.2     1  UNL1       -0.2504
      3 O           2.8660    0.2500    0.0000 O.3     1  UNL1       -0.4914
      4 C           6.3301    3.2500    0.0000 C.3     1  UNL1       -0.0367
      5 C           5.4641    2.7500    0.0000 C.3     1  UNL1        0.0477
      6 C           6.3301    4.2500    0.0000 C.3     1  UNL1       -0.0622
      7 C           7.1962    2.7500    0.0000 C.3     1  UNL1       -0.0622
      8 C           5.4641    1.7500    0.0000 C.2     1  UNL1        0.3127
      9 C           4.5981    0.2500    0.0000 C.ar    1  UNL1        0.1730
     10 C           3.7320   -0.2500    0.0000 C.ar    1  UNL1        0.1628
     11 C           4.5981   -1.7500    0.0000 C.ar    1  UNL1       -0.0216
     12 C           5.4641   -0.2500    0.0000 C.ar    1  UNL1       -0.0150
     13 C           3.7320   -1.2500    0.0000 C.ar    1  UNL1       -0.0091
     14 C           5.4641   -1.2500    0.0000 C.ar    1  UNL1       -0.0509
     15 C           4.5981   -2.7500    0.0000 C.2     1  UNL1       -0.0587
     16 C           5.4641   -3.2500    0.0000 C.2     1  UNL1       -0.0865
     17 C           2.0000   -0.2500    0.0000 C.3     1  UNL1        0.0790
     18 C           5.4641   -4.2500    0.0000 C.3     1  UNL1       -0.0465
     19 H           6.8671    3.5600    0.0000 H       1  UNL1        0.0301
     20 H           5.2520    3.3326    0.0000 H       1  UNL1        0.0380
     21 H           4.8535    2.6423    0.0000 H       1  UNL1        0.0380
     22 H           6.9501    4.2500    0.0000 H       1  UNL1        0.0232
     23 H           6.3301    4.8700    0.0000 H       1  UNL1        0.0232
     24 H           5.7101    4.2500    0.0000 H       1  UNL1        0.0232
     25 H           6.8862    2.2131    0.0000 H       1  UNL1        0.0232
     26 H           7.7331    2.4400    0.0000 H       1  UNL1        0.0232
     27 H           7.5062    3.2869    0.0000 H       1  UNL1        0.0232
     28 H           6.0010    0.0600    0.0000 H       1  UNL1        0.0656
     29 H           3.1951   -1.5600    0.0000 H       1  UNL1        0.0661
     30 H           6.0010   -1.5600    0.0000 H       1  UNL1        0.0625
     31 H           4.0611   -3.0600    0.0000 H       1  UNL1        0.0620
     32 H           6.0010   -2.9400    0.0000 H       1  UNL1        0.0569
     33 H           1.6900    0.2869    0.0000 H       1  UNL1        0.0660
     34 H           1.4631   -0.5600    0.0000 H       1  UNL1        0.0660
     35 H           2.3100   -0.7869    0.0000 H       1  UNL1        0.0660
     36 H           4.8441   -4.2500    0.0000 H       1  UNL1        0.0272
     37 H           5.4641   -4.8700    0.0000 H       1  UNL1        0.0272
     38 H           6.0841   -4.2500    0.0000 H       1  UNL1        0.0272
@<TRIPOS>BOND
     1     1     8    1
     2     1     9    1
     3     2     8    2
     4     3    10    1
     5     3    17    1
     6     4     5    1
     7     4     6    1
     8     4     7    1
     9     4    19    1
    10     5     8    1
    11     5    20    1
    12     5    21    1
    13     6    22    1
    14     6    23    1
    15     6    24    1
    16     7    25    1
    17     7    26    1
    18     7    27    1
    19     9    10   ar
    20     9    12   ar
    21    10    13   ar
    22    11    13   ar
    23    11    14   ar
    24    11    15    1
    25    12    14   ar
    26    12    28    1
    27    13    29    1
    28    14    30    1
    29    15    16    2
    30    15    31    1
    31    16    18    1
    32    16    32    1
    33    17    33    1
    34    17    34    1
    35    17    35    1
    36    18    36    1
    37    18    37    1
    38    18    38    1
