@<TRIPOS>MOLECULE
IMPHY001500
 55 59 0 0 0
SMALL
GASTEIGER

@<TRIPOS>ATOM
      1 O           5.6500   -0.2368    0.0000 O.3     1  UNL1       -0.4904
      2 O           3.9061   -3.3130    0.0000 O.3     1  UNL1       -0.4815
      3 O          10.9659    1.7634    0.0000 O.3     1  UNL1       -0.4815
      4 O           7.4578    1.7701    0.0000 O.3     1  UNL1       -0.5058
      5 C           7.4501   -0.2299    0.0000 C.3     1  UNL1        0.0258
      6 C           7.4420   -1.2715    0.0000 C.3     1  UNL1       -0.0141
      7 C           6.5480    0.2909    0.0000 C.3     1  UNL1        0.0968
      8 C           6.5320   -1.7784    0.0000 C.ar    1  UNL1       -0.0042
      9 C           8.3180    0.2668    0.0000 C.ar    1  UNL1        0.0015
     10 C           5.6660   -1.2784    0.0000 C.ar    1  UNL1        0.1343
     11 C           4.8000   -1.7784    0.0000 C.ar    1  UNL1        0.0584
     12 C           8.3219    1.2668    0.0000 C.ar    1  UNL1        0.1310
     13 C           3.0000   -2.7992    0.0000 C.3     1  UNL1        0.1235
     14 C           4.8000   -2.7784    0.0000 C.ar    1  UNL1        0.1324
     15 C           6.5320   -2.7784    0.0000 C.ar    1  UNL1       -0.0516
     16 C           9.1898    1.7634    0.0000 C.ar    1  UNL1        0.0582
     17 C           9.1821   -0.2366    0.0000 C.ar    1  UNL1       -0.0512
     18 C          10.9779    2.8050    0.0000 C.3     1  UNL1        0.1235
     19 C          10.0539    1.2601    0.0000 C.ar    1  UNL1        0.1324
     20 C           5.6660   -3.2784    0.0000 C.ar    1  UNL1       -0.0188
     21 C           3.9061   -1.2437    0.0000 C.2     1  UNL1       -0.0478
     22 C           3.0000   -1.7575    0.0000 C.2     1  UNL1       -0.0408
     23 C          10.0501    0.2601    0.0000 C.ar    1  UNL1       -0.0188
     24 C           9.1778    2.8050    0.0000 C.2     1  UNL1       -0.0478
     25 C          10.0779    3.3292    0.0000 C.2     1  UNL1       -0.0408
     26 C           2.0000   -2.8030    0.0000 C.3     1  UNL1       -0.0215
     27 C           2.5033   -3.6671    0.0000 C.3     1  UNL1       -0.0215
     28 C          11.4846    3.6671    0.0000 C.3     1  UNL1       -0.0215
     29 C          11.9779    2.7973    0.0000 C.3     1  UNL1       -0.0215
     30 H           8.1837   -0.6592    0.0000 H       1  UNL1        0.0386
     31 H           7.6466   -1.8568    0.0000 H       1  UNL1        0.0321
     32 H           8.0537   -1.1701    0.0000 H       1  UNL1        0.0321
     33 H           6.9453    0.7669    0.0000 H       1  UNL1        0.0703
     34 H           6.1470    0.7638    0.0000 H       1  UNL1        0.0703
     35 H           7.0690   -3.0884    0.0000 H       1  UNL1        0.0623
     36 H           9.1797   -0.8566    0.0000 H       1  UNL1        0.0623
     37 H           5.6660   -3.8984    0.0000 H       1  UNL1        0.0654
     38 H           3.9132   -0.6237    0.0000 H       1  UNL1        0.0624
     39 H           2.4643   -1.4455    0.0000 H       1  UNL1        0.0611
     40 H          10.5858   -0.0520    0.0000 H       1  UNL1        0.0654
     41 H           8.6385    3.1108    0.0000 H       1  UNL1        0.0624
     42 H          10.0779    3.9492    0.0000 H       1  UNL1        0.0611
     43 H           1.9652   -3.3592    0.0000 H       1  UNL1        0.0271
     44 H           2.1954   -4.2052    0.0000 H       1  UNL1        0.0271
     45 H           1.9976   -2.1830    0.0000 H       1  UNL1        0.0271
     46 H           1.3800   -2.8054    0.0000 H       1  UNL1        0.0271
     47 H           2.0024   -3.4230    0.0000 H       1  UNL1        0.0271
     48 H           3.0415   -3.9750    0.0000 H       1  UNL1        0.0271
     49 H          11.9731    2.1773    0.0000 H       1  UNL1        0.0271
     50 H          12.0191    3.3530    0.0000 H       1  UNL1        0.0271
     51 H          11.7987    4.2016    0.0000 H       1  UNL1        0.0271
     52 H          12.5979    2.7925    0.0000 H       1  UNL1        0.0271
     53 H          10.9500    3.9812    0.0000 H       1  UNL1        0.0271
     54 H          11.9827    3.4172    0.0000 H       1  UNL1        0.0271
     55 H           7.4602    2.3901    0.0000 H       1  UNL1        0.2922
@<TRIPOS>BOND
     1     1     7    1
     2     1    10    1
     3     2    13    1
     4     2    14    1
     5     3    18    1
     6     3    19    1
     7     4    12    1
     8     4    55    1
     9     5     6    1
    10     5     7    1
    11     5     9    1
    12     5    30    1
    13     6     8    1
    14     6    31    1
    15     6    32    1
    16     7    33    1
    17     7    34    1
    18     8    10   ar
    19     8    15   ar
    20     9    12   ar
    21     9    17   ar
    22    10    11   ar
    23    11    14   ar
    24    11    21    1
    25    12    16   ar
    26    13    22    1
    27    13    26    1
    28    13    27    1
    29    14    20   ar
    30    15    20   ar
    31    15    35    1
    32    16    19   ar
    33    16    24    1
    34    17    23   ar
    35    17    36    1
    36    18    25    1
    37    18    28    1
    38    18    29    1
    39    19    23   ar
    40    20    37    1
    41    21    22    2
    42    21    38    1
    43    22    39    1
    44    23    40    1
    45    24    25    2
    46    24    41    1
    47    25    42    1
    48    26    45    1
    49    26    46    1
    50    26    47    1
    51    27    43    1
    52    27    44    1
    53    27    48    1
    54    28    50    1
    55    28    51    1
    56    28    53    1
    57    29    49    1
    58    29    52    1
    59    29    54    1
