@<TRIPOS>MOLECULE
IMPHY006183
 68 72 0 0 0
SMALL
GASTEIGER

@<TRIPOS>ATOM
      1 O          11.1972   -1.6796    0.0000 O.3     1  UNL1       -0.3302
      2 O           9.4651   -3.6796    0.0000 O.3     1  UNL1       -0.3864
      3 O          11.1972   -4.6796    0.0000 O.3     1  UNL1       -0.3864
      4 O          12.9292   -1.6796    0.0000 O.3     1  UNL1       -0.4606
      5 O          12.9292   -3.6796    0.0000 O.3     1  UNL1       -0.3829
      6 O           8.5991   -2.1796    0.0000 O.3     1  UNL1       -0.4589
      7 O          14.6852    1.3829    0.0000 O.2     1  UNL1       -0.4544
      8 O          11.1830    1.3996    0.0000 O.3     1  UNL1       -0.5058
      9 O           7.7331   -0.6796    0.0000 O.2     1  UNL1       -0.2456
     10 O          12.0929    2.8930    0.0000 O.2     1  UNL1       -0.2869
     11 O          18.1608    4.3696    0.0000 O.3     1  UNL1       -0.5068
     12 O           2.5369   -3.6796    0.0000 O.3     1  UNL1       -0.5068
     13 C          10.3312   -3.1796    0.0000 C.3     1  UNL1        0.1130
     14 C          11.1972   -3.6796    0.0000 C.3     1  UNL1        0.1152
     15 C          10.3312   -2.1796    0.0000 C.3     1  UNL1        0.1250
     16 C          12.0632   -3.1796    0.0000 C.3     1  UNL1        0.1454
     17 C          12.0632   -2.1796    0.0000 C.3     1  UNL1        0.2308
     18 C           9.4651   -1.6796    0.0000 C.3     1  UNL1        0.1215
     19 C          12.9292   -0.6796    0.0000 C.ar    1  UNL1        0.1310
     20 C          13.8293   -0.1553    0.0000 C.ar    1  UNL1        0.0235
     21 C          12.0292   -0.1553    0.0000 C.ar    1  UNL1        0.0226
     22 C          13.8173    0.8863    0.0000 C.ar    1  UNL1        0.1462
     23 C           7.7331   -1.6796    0.0000 C.2     1  UNL1        0.3320
     24 C          12.9532    1.3896    0.0000 C.ar    1  UNL1        0.1055
     25 C          12.0412    0.8863    0.0000 C.ar    1  UNL1        0.1347
     26 C          12.9570    2.3896    0.0000 C.ar    1  UNL1        0.1966
     27 C           6.8671   -2.1796    0.0000 C.2     1  UNL1        0.0231
     28 C          14.6891    2.3829    0.0000 C.ar    1  UNL1        0.1392
     29 C          13.8250    2.8863    0.0000 C.ar    1  UNL1        0.0288
     30 C          15.5570    2.8796    0.0000 C.ar    1  UNL1        0.0176
     31 C           6.0010   -1.6796    0.0000 C.2     1  UNL1       -0.0478
     32 C          16.4211    2.3763    0.0000 C.ar    1  UNL1       -0.0476
     33 C          15.5609    3.8796    0.0000 C.ar    1  UNL1       -0.0476
     34 C           5.1350   -2.1796    0.0000 C.ar    1  UNL1       -0.0246
     35 C          17.2890    2.8729    0.0000 C.ar    1  UNL1       -0.0195
     36 C          16.4288    4.3762    0.0000 C.ar    1  UNL1       -0.0195
     37 C          17.2929    3.8729    0.0000 C.ar    1  UNL1        0.1169
     38 C           4.2690   -1.6796    0.0000 C.ar    1  UNL1       -0.0511
     39 C           5.1350   -3.1796    0.0000 C.ar    1  UNL1       -0.0511
     40 C           3.4030   -2.1796    0.0000 C.ar    1  UNL1       -0.0196
     41 C           4.2690   -3.6796    0.0000 C.ar    1  UNL1       -0.0196
     42 C           3.4030   -3.1796    0.0000 C.ar    1  UNL1        0.1169
     43 H           9.7942   -2.8696    0.0000 H       1  UNL1        0.0647
     44 H          11.7341   -3.9896    0.0000 H       1  UNL1        0.0648
     45 H          10.3312   -1.5596    0.0000 H       1  UNL1        0.0658
     46 H          12.6002   -2.8696    0.0000 H       1  UNL1        0.0683
     47 H          12.0632   -1.5596    0.0000 H       1  UNL1        0.1084
     48 H           9.8637   -1.2046    0.0000 H       1  UNL1        0.0725
     49 H           9.0666   -1.2046    0.0000 H       1  UNL1        0.0725
     50 H           9.4651   -4.2996    0.0000 H       1  UNL1        0.2100
     51 H          10.6603   -4.9896    0.0000 H       1  UNL1        0.2100
     52 H          12.9292   -4.2996    0.0000 H       1  UNL1        0.2102
     53 H          14.3686   -0.4611    0.0000 H       1  UNL1        0.0691
     54 H          11.4899   -0.4611    0.0000 H       1  UNL1        0.0691
     55 H           6.8671   -2.7996    0.0000 H       1  UNL1        0.0689
     56 H          13.8274    3.5063    0.0000 H       1  UNL1        0.0693
     57 H          10.6414    1.0979    0.0000 H       1  UNL1        0.2922
     58 H           6.0010   -1.0596    0.0000 H       1  UNL1        0.0626
     59 H          16.4187    1.7563    0.0000 H       1  UNL1        0.0626
     60 H          15.0251    4.1916    0.0000 H       1  UNL1        0.0626
     61 H          17.8248    2.5608    0.0000 H       1  UNL1        0.0654
     62 H          16.4312    4.9962    0.0000 H       1  UNL1        0.0654
     63 H           4.2690   -1.0596    0.0000 H       1  UNL1        0.0625
     64 H           5.6720   -3.4896    0.0000 H       1  UNL1        0.0625
     65 H           2.8660   -1.8696    0.0000 H       1  UNL1        0.0654
     66 H           4.2690   -4.2996    0.0000 H       1  UNL1        0.0654
     67 H          18.1632    4.9896    0.0000 H       1  UNL1        0.2921
     68 H           2.0000   -3.3696    0.0000 H       1  UNL1        0.2921
@<TRIPOS>BOND
     1     1    15    1
     2     1    17    1
     3    13     2    1
     4     2    50    1
     5    14     3    1
     6     3    51    1
     7    17     4    1
     8     4    19    1
     9    16     5    1
    10     5    52    1
    11     6    18    1
    12     6    23    1
    13     7    22   ar
    14     7    28   ar
    15     8    25    1
    16     8    57    1
    17     9    23    2
    18    10    26    2
    19    11    37    1
    20    11    67    1
    21    12    42    1
    22    12    68    1
    23    13    14    1
    24    13    15    1
    25    13    43    1
    26    14    16    1
    27    14    44    1
    28    15    18    1
    29    15    45    1
    30    16    17    1
    31    16    46    1
    32    17    47    1
    33    18    48    1
    34    18    49    1
    35    19    20   ar
    36    19    21   ar
    37    20    22   ar
    38    20    53    1
    39    21    25   ar
    40    21    54    1
    41    22    24   ar
    42    23    27    1
    43    24    25   ar
    44    24    26   ar
    45    26    29   ar
    46    27    31    2
    47    27    55    1
    48    28    29   ar
    49    28    30    1
    50    29    56    1
    51    30    32   ar
    52    30    33   ar
    53    31    34    1
    54    31    58    1
    55    32    35   ar
    56    32    59    1
    57    33    36   ar
    58    33    60    1
    59    34    38   ar
    60    34    39   ar
    61    35    37   ar
    62    35    61    1
    63    36    37   ar
    64    36    62    1
    65    38    40   ar
    66    38    63    1
    67    39    41   ar
    68    39    64    1
    69    40    42   ar
    70    40    65    1
    71    41    42   ar
    72    41    66    1
