@<TRIPOS>MOLECULE
IMPHY007331
 23 22 0 0 0
SMALL
GASTEIGER

@<TRIPOS>ATOM
      1 O           6.3301   -0.7500    0.0000 O.2     1  UNL1       -0.2977
      2 C           4.5981    0.2500    0.0000 C.3     1  UNL1       -0.0279
      3 C           5.4641    0.7500    0.0000 C.3     1  UNL1        0.0090
      4 C           3.7320    0.7500    0.0000 C.2     1  UNL1       -0.0849
      5 C           2.8660    0.2500    0.0000 C.2     1  UNL1       -0.0796
      6 C           6.3301    0.2500    0.0000 C.2     1  UNL1        0.1306
      7 C           2.0000    0.7500    0.0000 C.3     1  UNL1       -0.0440
      8 C           2.8660   -0.7500    0.0000 C.3     1  UNL1       -0.0440
      9 C           7.1962    0.7500    0.0000 C.3     1  UNL1       -0.0061
     10 H           4.1996   -0.2249    0.0000 H       1  UNL1        0.0311
     11 H           4.9966   -0.2249    0.0000 H       1  UNL1        0.0311
     12 H           5.8626    1.2250    0.0000 H       1  UNL1        0.0344
     13 H           5.0656    1.2250    0.0000 H       1  UNL1        0.0344
     14 H           3.7320    1.3700    0.0000 H       1  UNL1        0.0572
     15 H           2.3100    1.2869    0.0000 H       1  UNL1        0.0274
     16 H           1.4631    1.0600    0.0000 H       1  UNL1        0.0274
     17 H           1.6900    0.2131    0.0000 H       1  UNL1        0.0274
     18 H           2.2460   -0.7500    0.0000 H       1  UNL1        0.0274
     19 H           2.8660   -1.3700    0.0000 H       1  UNL1        0.0274
     20 H           3.4860   -0.7500    0.0000 H       1  UNL1        0.0274
     21 H           7.5062    0.2131    0.0000 H       1  UNL1        0.0306
     22 H           7.7331    1.0600    0.0000 H       1  UNL1        0.0306
     23 H           6.8862    1.2869    0.0000 H       1  UNL1        0.0306
@<TRIPOS>BOND
     1     1     6    2
     2     2     3    1
     3     2     4    1
     4     2    10    1
     5     2    11    1
     6     3     6    1
     7     3    12    1
     8     3    13    1
     9     4     5    2
    10     4    14    1
    11     5     7    1
    12     5     8    1
    13     6     9    1
    14     7    15    1
    15     7    16    1
    16     7    17    1
    17     8    18    1
    18     8    19    1
    19     8    20    1
    20     9    21    1
    21     9    22    1
    22     9    23    1
