@<TRIPOS>MOLECULE
IMPHY010264
 69 74 0 0 0
SMALL
GASTEIGER

@<TRIPOS>ATOM
      1 O           8.3362   -1.9105    0.0000 O.3     1  UNL1       -0.4811
      2 O           7.0125    1.5986    0.0000 O.3     1  UNL1       -0.4808
      3 O          10.0682    0.0895    0.0000 O.3     1  UNL1       -0.3868
      4 O           6.0533    4.1387    0.0000 O.3     1  UNL1       -0.3875
      5 O          10.6027    0.8609    0.0000 O.3     1  UNL1       -0.5062
      6 O           6.2451    1.0678    0.0000 O.3     1  UNL1       -0.5062
      7 O           9.7043    3.8483    0.0000 O.3     1  UNL1       -0.5063
      8 O           4.8061   -1.9346    0.0000 O.3     1  UNL1       -0.5065
      9 O          12.6663   -1.4105    0.0000 O.3     1  UNL1       -0.5032
     10 O          10.9343   -4.4105    0.0000 O.3     1  UNL1       -0.5032
     11 O          12.6663   -3.4105    0.0000 O.3     1  UNL1       -0.5009
     12 O           3.6918    0.1545    0.0000 O.3     1  UNL1       -0.5033
     13 O           2.4004    1.6817    0.0000 O.3     1  UNL1       -0.5033
     14 C           8.3362    0.0895    0.0000 C.3     1  UNL1        0.0528
     15 C           9.2022   -0.4105    0.0000 C.3     1  UNL1        0.1074
     16 C           8.6782    1.0292    0.0000 C.ar    1  UNL1        0.0463
     17 C           9.2022   -1.4105    0.0000 C.3     1  UNL1        0.1520
     18 C           7.4702   -0.4105    0.0000 C.ar    1  UNL1        0.0461
     19 C           8.0354    1.7953    0.0000 C.ar    1  UNL1        0.1355
     20 C           8.3774    2.7350    0.0000 C.ar    1  UNL1        0.0387
     21 C           6.6931    3.3702    0.0000 C.3     1  UNL1        0.1004
     22 C           6.3368    2.3914    0.0000 C.3     1  UNL1        0.1513
     23 C           7.7203    3.5431    0.0000 C.3     1  UNL1        0.0092
     24 C           7.4702   -1.4105    0.0000 C.ar    1  UNL1        0.1323
     25 C           9.6630    1.2029    0.0000 C.ar    1  UNL1        0.1277
     26 C          10.0682   -1.9105    0.0000 C.ar    1  UNL1        0.0023
     27 C           6.5762    0.1242    0.0000 C.ar    1  UNL1        0.1276
     28 C           9.3622    2.9086    0.0000 C.ar    1  UNL1        0.1271
     29 C          10.0050    2.1426    0.0000 C.ar    1  UNL1        0.0221
     30 C           5.3527    2.2139    0.0000 C.ar    1  UNL1       -0.0012
     31 C           6.5762   -1.9451    0.0000 C.ar    1  UNL1        0.0221
     32 C           5.6702   -0.3897    0.0000 C.ar    1  UNL1        0.0218
     33 C          10.0682   -2.9105    0.0000 C.ar    1  UNL1       -0.0095
     34 C          10.9343   -1.4105    0.0000 C.ar    1  UNL1       -0.0095
     35 C           5.6702   -1.4313    0.0000 C.ar    1  UNL1        0.1238
     36 C           5.0144    1.2730    0.0000 C.ar    1  UNL1       -0.0098
     37 C           4.7070    2.9775    0.0000 C.ar    1  UNL1       -0.0513
     38 C          11.8003   -1.9105    0.0000 C.ar    1  UNL1        0.1623
     39 C          10.9343   -3.4105    0.0000 C.ar    1  UNL1        0.1623
     40 C          11.8003   -2.9105    0.0000 C.ar    1  UNL1        0.2006
     41 C           4.0302    1.0956    0.0000 C.ar    1  UNL1        0.1586
     42 C           3.7228    2.8000    0.0000 C.ar    1  UNL1       -0.0162
     43 C           3.3845    1.8591    0.0000 C.ar    1  UNL1        0.1582
     44 H           9.1349    0.3803    0.0000 H       1  UNL1        0.0429
     45 H           9.7392   -0.7205    0.0000 H       1  UNL1        0.0643
     46 H           9.2022   -2.0305    0.0000 H       1  UNL1        0.0811
     47 H           6.0823    3.2637    0.0000 H       1  UNL1        0.0637
     48 H           6.1282    1.8075    0.0000 H       1  UNL1        0.0811
     49 H           8.2612    3.8462    0.0000 H       1  UNL1        0.0342
     50 H           7.5142    4.1279    0.0000 H       1  UNL1        0.0342
     51 H          10.6156    2.2502    0.0000 H       1  UNL1        0.0691
     52 H          10.6052   -0.2205    0.0000 H       1  UNL1        0.2100
     53 H           6.5834   -2.5651    0.0000 H       1  UNL1        0.0691
     54 H           5.1344   -0.0776    0.0000 H       1  UNL1        0.0691
     55 H           9.5313   -3.2205    0.0000 H       1  UNL1        0.0659
     56 H          10.9343   -0.7905    0.0000 H       1  UNL1        0.0659
     57 H           6.2676    4.7205    0.0000 H       1  UNL1        0.2100
     58 H           5.4147    0.7996    0.0000 H       1  UNL1        0.0659
     59 H           4.9168    3.5609    0.0000 H       1  UNL1        0.0623
     60 H          11.0777    1.2594    0.0000 H       1  UNL1        0.2921
     61 H           5.6358    1.1825    0.0000 H       1  UNL1        0.2921
     62 H          10.3149    3.9560    0.0000 H       1  UNL1        0.2921
     63 H           3.3225    3.2734    0.0000 H       1  UNL1        0.0655
     64 H           4.8085   -2.5546    0.0000 H       1  UNL1        0.2921
     65 H          13.2033   -1.7205    0.0000 H       1  UNL1        0.2923
     66 H          10.3973   -4.7205    0.0000 H       1  UNL1        0.2923
     67 H          12.6663   -4.0305    0.0000 H       1  UNL1        0.2924
     68 H           3.0816    0.0445    0.0000 H       1  UNL1        0.2923
     69 H           2.0000    2.1551    0.0000 H       1  UNL1        0.2923
@<TRIPOS>BOND
     1     1    17    1
     2     1    24    1
     3     2    19    1
     4     2    22    1
     5    15     3    1
     6     3    52    1
     7    21     4    1
     8     4    57    1
     9     5    25    1
    10     5    60    1
    11     6    27    1
    12     6    61    1
    13     7    28    1
    14     7    62    1
    15     8    35    1
    16     8    64    1
    17     9    38    1
    18     9    65    1
    19    10    39    1
    20    10    66    1
    21    11    40    1
    22    11    67    1
    23    12    41    1
    24    12    68    1
    25    13    43    1
    26    13    69    1
    27    14    15    1
    28    14    16    1
    29    14    18    1
    30    14    44    1
    31    15    17    1
    32    15    45    1
    33    16    19   ar
    34    16    25   ar
    35    17    26    1
    36    17    46    1
    37    18    24   ar
    38    18    27   ar
    39    19    20   ar
    40    20    23    1
    41    20    28   ar
    42    21    22    1
    43    21    23    1
    44    21    47    1
    45    22    30    1
    46    22    48    1
    47    23    49    1
    48    23    50    1
    49    24    31   ar
    50    25    29   ar
    51    26    33   ar
    52    26    34   ar
    53    27    32   ar
    54    28    29   ar
    55    29    51    1
    56    30    36   ar
    57    30    37   ar
    58    31    35   ar
    59    31    53    1
    60    32    35   ar
    61    32    54    1
    62    33    39   ar
    63    33    55    1
    64    34    38   ar
    65    34    56    1
    66    36    41   ar
    67    36    58    1
    68    37    42   ar
    69    37    59    1
    70    38    40   ar
    71    39    40   ar
    72    41    43   ar
    73    42    43   ar
    74    42    63    1
