@<TRIPOS>MOLECULE
IMPHY012261
 39 40 0 0 0
SMALL
GASTEIGER

@<TRIPOS>ATOM
      1 C           5.4490    0.3292    0.0000 C.3     1  UNL1       -0.0222
      2 C           4.3089    1.2863    0.0000 C.3     1  UNL1       -0.0311
      3 C           4.0501    0.3204    0.0000 C.3     1  UNL1       -0.0142
      4 C           3.5723    2.2689    0.0000 C.3     1  UNL1       -0.0424
      5 C           2.2756    0.9752    0.0000 C.3     1  UNL1       -0.0311
      6 C           5.9490   -0.5368    0.0000 C.3     1  UNL1       -0.0434
      7 C           2.8290   -0.5453    0.0000 C.2     1  UNL1       -0.0729
      8 C           6.3150    0.8292    0.0000 C.3     1  UNL1       -0.0587
      9 C           2.0000    0.0139    0.0000 C.2     1  UNL1       -0.0845
     10 C           6.9490   -0.5368    0.0000 C.3     1  UNL1       -0.0340
     11 C           2.8639   -1.5447    0.0000 C.3     1  UNL1       -0.0435
     12 C           7.4490   -1.4029    0.0000 C.2     1  UNL1       -0.0853
     13 C           8.4490   -1.4029    0.0000 C.2     1  UNL1       -0.0796
     14 C           8.9490   -2.2689    0.0000 C.3     1  UNL1       -0.0440
     15 C           8.9490   -0.5368    0.0000 C.3     1  UNL1       -0.0440
     16 H           4.7592    1.7124    0.0000 H       1  UNL1        0.0309
     17 H           4.2401   -0.2698    0.0000 H       1  UNL1        0.0351
     18 H           3.8901    2.8012    0.0000 H       1  UNL1        0.0274
     19 H           2.9591    2.3608    0.0000 H       1  UNL1        0.0274
     20 H           2.2706    1.5951    0.0000 H       1  UNL1        0.0310
     21 H           1.6613    1.0589    0.0000 H       1  UNL1        0.0310
     22 H           5.3664   -0.7489    0.0000 H       1  UNL1        0.0274
     23 H           6.0567   -1.1474    0.0000 H       1  UNL1        0.0274
     24 H           6.6250    0.2922    0.0000 H       1  UNL1        0.0235
     25 H           6.8520    1.1392    0.0000 H       1  UNL1        0.0235
     26 H           6.0050    1.3661    0.0000 H       1  UNL1        0.0235
     27 H           1.4174   -0.1982    0.0000 H       1  UNL1        0.0572
     28 H           7.5316   -0.3248    0.0000 H       1  UNL1        0.0308
     29 H           6.8413    0.0737    0.0000 H       1  UNL1        0.0308
     30 H           2.2443   -1.5663    0.0000 H       1  UNL1        0.0274
     31 H           2.8856   -2.1643    0.0000 H       1  UNL1        0.0274
     32 H           3.4836   -1.5231    0.0000 H       1  UNL1        0.0274
     33 H           7.1390   -1.9398    0.0000 H       1  UNL1        0.0571
     34 H           8.4121   -2.5789    0.0000 H       1  UNL1        0.0274
     35 H           9.2590   -2.8058    0.0000 H       1  UNL1        0.0274
     36 H           9.4859   -1.9589    0.0000 H       1  UNL1        0.0274
     37 H           9.4859   -0.8468    0.0000 H       1  UNL1        0.0274
     38 H           9.2590    0.0001    0.0000 H       1  UNL1        0.0274
     39 H           8.4121   -0.2268    0.0000 H       1  UNL1        0.0274
@<TRIPOS>BOND
     1     1     2    1
     2     1     3    1
     3     1     6    1
     4     1     8    1
     5     2     4    1
     6     2     5    1
     7     2    16    1
     8     3     4    1
     9     3     7    1
    10     3    17    1
    11     4    18    1
    12     4    19    1
    13     5     9    1
    14     5    20    1
    15     5    21    1
    16     6    10    1
    17     6    22    1
    18     6    23    1
    19     7     9    2
    20     7    11    1
    21     8    24    1
    22     8    25    1
    23     8    26    1
    24     9    27    1
    25    10    12    1
    26    10    28    1
    27    10    29    1
    28    11    30    1
    29    11    31    1
    30    11    32    1
    31    12    13    2
    32    12    33    1
    33    13    14    1
    34    13    15    1
    35    14    34    1
    36    14    35    1
    37    14    36    1
    38    15    37    1
    39    15    38    1
    40    15    39    1
