@<TRIPOS>MOLECULE
IMPHY002092
 26 27 0 0 0
SMALL
GASTEIGER

@<TRIPOS>ATOM
      1 C           5.4646   -0.0000    0.0000 C.3     1  UNL1       -0.0284
      2 C           4.5981   -0.5000    0.0000 C.3     1  UNL1       -0.0317
      3 C           4.5981    0.5000    0.0000 C.3     1  UNL1       -0.0286
      4 C           3.7320   -1.0000    0.0000 C.3     1  UNL1       -0.0458
      5 C           3.7320    1.0000    0.0000 C.3     1  UNL1       -0.0284
      6 C           5.9646   -0.8660    0.0000 C.3     1  UNL1       -0.0593
      7 C           5.9646    0.8660    0.0000 C.3     1  UNL1       -0.0593
      8 C           2.8660   -0.5000    0.0000 C.3     1  UNL1       -0.0317
      9 C           2.8660    0.5000    0.0000 C.2     1  UNL1       -0.0763
     10 C           2.0000    1.0000    0.0000 C.2     1  UNL1       -0.0994
     11 H           5.0230   -1.2362    0.0000 H       1  UNL1        0.0309
     12 H           5.0230    1.2362    0.0000 H       1  UNL1        0.0312
     13 H           3.3335   -1.4750    0.0000 H       1  UNL1        0.0271
     14 H           4.1306   -1.4750    0.0000 H       1  UNL1        0.0271
     15 H           4.1306    1.4750    0.0000 H       1  UNL1        0.0313
     16 H           3.3335    1.4750    0.0000 H       1  UNL1        0.0313
     17 H           5.4277   -1.1760    0.0000 H       1  UNL1        0.0235
     18 H           6.2746   -1.4030    0.0000 H       1  UNL1        0.0235
     19 H           6.5016   -0.5560    0.0000 H       1  UNL1        0.0235
     20 H           6.5016    0.5560    0.0000 H       1  UNL1        0.0235
     21 H           6.2746    1.4030    0.0000 H       1  UNL1        0.0235
     22 H           5.4277    1.1760    0.0000 H       1  UNL1        0.0235
     23 H           2.2554   -0.3923    0.0000 H       1  UNL1        0.0310
     24 H           2.6540   -1.0826    0.0000 H       1  UNL1        0.0310
     25 H           2.0000    1.6200    0.0000 H       1  UNL1        0.0534
     26 H           1.4631    0.6900    0.0000 H       1  UNL1        0.0534
@<TRIPOS>BOND
     1     1     2    1
     2     1     3    1
     3     1     6    1
     4     1     7    1
     5     2     3    1
     6     2     4    1
     7     2    11    1
     8     3     5    1
     9     3    12    1
    10     4     8    1
    11     4    13    1
    12     4    14    1
    13     5     9    1
    14     5    15    1
    15     5    16    1
    16     6    17    1
    17     6    18    1
    18     6    19    1
    19     7    20    1
    20     7    21    1
    21     7    22    1
    22     8     9    1
    23     8    23    1
    24     8    24    1
    25     9    10    2
    26    10    25    1
    27    10    26    1
