@<TRIPOS>MOLECULE
IMPHY003369
 49 51 0 0 0
SMALL
GASTEIGER

@<TRIPOS>ATOM
      1 CL          4.2463   -3.7796    0.0000 Cl      1  UNL1       -0.1224
      2 O           3.7230   -1.8067    0.0000 O.3     1  UNL1       -0.4569
      3 O           5.4378   -3.7019    0.0000 O.3     1  UNL1       -0.3844
      4 O           7.0268   -3.7953    0.0000 O.3     1  UNL1       -0.3889
      5 O           4.5447    1.3586    0.0000 O.3     1  UNL1       -0.4570
      6 O           2.0000   -1.3746    0.0000 O.2     1  UNL1       -0.2453
      7 O           6.1053    2.1102    0.0000 O.2     1  UNL1       -0.2453
      8 C           5.4786   -1.7330    0.0000 C.3     1  UNL1        0.0358
      9 C           6.3796   -1.2991    0.0000 C.3     1  UNL1       -0.0086
     10 C           5.6146   -2.7177    0.0000 C.3     1  UNL1        0.1118
     11 C           4.5777   -1.2991    0.0000 C.3     1  UNL1        0.1198
     12 C           6.5929   -2.8944    0.0000 C.3     1  UNL1        0.0859
     13 C           7.0647   -2.0194    0.0000 C.3     1  UNL1       -0.0171
     14 C           4.3551   -0.3242    0.0000 C.3     1  UNL1        0.0651
     15 C           6.6021   -0.3242    0.0000 C.2     1  UNL1       -0.0695
     16 C           4.9786    0.4577    0.0000 C.3     1  UNL1        0.1174
     17 C           5.9786    0.4577    0.0000 C.3     1  UNL1        0.0063
     18 C           4.6239   -2.8536    0.0000 C.3     1  UNL1        0.0542
     19 C           3.3648   -0.2376    0.0000 C.2     1  UNL1        0.0396
     20 C           2.9749   -1.1520    0.0000 C.2     1  UNL1        0.3354
     21 C           7.5770   -0.1016    0.0000 C.2     1  UNL1       -0.0991
     22 C           2.8504    0.6199    0.0000 C.2     1  UNL1       -0.0882
     23 C           5.1081    2.1849    0.0000 C.2     1  UNL1        0.3346
     24 C           4.6742    3.0859    0.0000 C.2     1  UNL1        0.0265
     25 C           5.2375    3.9121    0.0000 C.3     1  UNL1       -0.0335
     26 C           3.6770    3.1606    0.0000 C.2     1  UNL1       -0.0890
     27 H           4.7916   -2.2335    0.0000 H       1  UNL1        0.0372
     28 H           7.1993   -1.0740    0.0000 H       1  UNL1        0.0351
     29 H           4.6147   -2.1483    0.0000 H       1  UNL1        0.0745
     30 H           7.2127   -2.9085    0.0000 H       1  UNL1        0.0622
     31 H           7.5765   -2.3694    0.0000 H       1  UNL1        0.0297
     32 H           7.4666   -1.5472    0.0000 H       1  UNL1        0.0297
     33 H           5.1838   -0.5133    0.0000 H       1  UNL1        0.0423
     34 H           4.3625    0.5271    0.0000 H       1  UNL1        0.0744
     35 H           6.5372    0.7267    0.0000 H       1  UNL1        0.0346
     36 H           5.8407    1.0621    0.0000 H       1  UNL1        0.0346
     37 H           4.6476   -2.2341    0.0000 H       1  UNL1        0.0459
     38 H           4.0179   -2.7228    0.0000 H       1  UNL1        0.0459
     39 H           4.8545   -3.9121    0.0000 H       1  UNL1        0.2103
     40 H           7.6450   -3.8416    0.0000 H       1  UNL1        0.2099
     41 H           7.9988   -0.5561    0.0000 H       1  UNL1        0.0535
     42 H           7.7598    0.4908    0.0000 H       1  UNL1        0.0535
     43 H           3.1514    1.1620    0.0000 H       1  UNL1        0.0540
     44 H           2.2305    0.6096    0.0000 H       1  UNL1        0.0540
     45 H           5.7498    3.5628    0.0000 H       1  UNL1        0.0280
     46 H           5.5868    4.4244    0.0000 H       1  UNL1        0.0280
     47 H           4.7252    4.2614    0.0000 H       1  UNL1        0.0280
     48 H           3.4080    3.7192    0.0000 H       1  UNL1        0.0540
     49 H           3.3277    2.6483    0.0000 H       1  UNL1        0.0540
@<TRIPOS>BOND
     1     1    18    1
     2     2    11    1
     3     2    20    1
     4    10     3    1
     5     3    39    1
     6    12     4    1
     7     4    40    1
     8    16     5    1
     9     5    23    1
    10     6    20    2
    11     7    23    2
    12     8     9    1
    13     8    10    1
    14     8    11    1
    15     8    27    1
    16     9    13    1
    17     9    15    1
    18     9    28    1
    19    10    12    1
    20    10    18    1
    21    11    14    1
    22    11    29    1
    23    12    13    1
    24    12    30    1
    25    13    31    1
    26    13    32    1
    27    14    16    1
    28    14    19    1
    29    14    33    1
    30    15    17    1
    31    15    21    2
    32    16    17    1
    33    16    34    1
    34    17    35    1
    35    17    36    1
    36    18    37    1
    37    18    38    1
    38    19    20    1
    39    19    22    2
    40    21    41    1
    41    21    42    1
    42    22    43    1
    43    22    44    1
    44    23    24    1
    45    24    25    1
    46    24    26    2
    47    25    45    1
    48    25    46    1
    49    25    47    1
    50    26    48    1
    51    26    49    1
