@<TRIPOS>MOLECULE
IMPHY002996
 53 56 0 0 0
SMALL
GASTEIGER

@<TRIPOS>ATOM
      1 O           5.1350   -1.9499    0.0000 O.3     1  UNL1       -0.3313
      2 O           6.8671   -1.9499    0.0000 O.3     1  UNL1       -0.4606
      3 O           5.1350   -4.9499    0.0000 O.3     1  UNL1       -0.3864
      4 O           3.4030   -3.9499    0.0000 O.3     1  UNL1       -0.3865
      5 O           6.8671   -3.9499    0.0000 O.3     1  UNL1       -0.3829
      6 O           2.5369   -2.4499    0.0000 O.3     1  UNL1       -0.3924
      7 O           8.4701    1.2171    0.0000 O.3     1  UNL1       -0.4512
      8 O           5.1350    1.0501    0.0000 O.3     1  UNL1       -0.5058
      9 O           6.4084    2.7662    0.0000 O.2     1  UNL1       -0.2831
     10 O          11.5650    4.7230    0.0000 O.3     1  UNL1       -0.5032
     11 O          11.5650    1.2589    0.0000 O.3     1  UNL1       -0.5032
     12 O          12.5650    2.9910    0.0000 O.3     1  UNL1       -0.5009
     13 C           5.1350   -3.9499    0.0000 C.3     1  UNL1        0.1152
     14 C           4.2690   -3.4499    0.0000 C.3     1  UNL1        0.1120
     15 C           6.0010   -3.4499    0.0000 C.3     1  UNL1        0.1454
     16 C           4.2690   -2.4499    0.0000 C.3     1  UNL1        0.1140
     17 C           6.0010   -2.4499    0.0000 C.3     1  UNL1        0.2308
     18 C           3.4030   -1.9499    0.0000 C.3     1  UNL1        0.0731
     19 C           6.8671   -0.9499    0.0000 C.ar    1  UNL1        0.1310
     20 C           7.7331   -0.4499    0.0000 C.ar    1  UNL1        0.0235
     21 C           6.0010   -0.4499    0.0000 C.ar    1  UNL1        0.0226
     22 C           7.7331    0.5501    0.0000 C.ar    1  UNL1        0.1465
     23 C           6.8671    1.0501    0.0000 C.ar    1  UNL1        0.1091
     24 C           6.0010    0.5501    0.0000 C.ar    1  UNL1        0.1348
     25 C           7.0763    2.0219    0.0000 C.2     1  UNL1        0.2350
     26 C           8.0650    2.1249    0.0000 C.2     1  UNL1        0.1763
     27 C           8.5650    2.9910    0.0000 C.2     1  UNL1       -0.0081
     28 C           9.5650    2.9910    0.0000 C.ar    1  UNL1       -0.0143
     29 C          10.0650    2.1249    0.0000 C.ar    1  UNL1       -0.0090
     30 C          10.0650    3.8570    0.0000 C.ar    1  UNL1       -0.0090
     31 C          11.0650    3.8570    0.0000 C.ar    1  UNL1        0.1625
     32 C          11.0650    2.1249    0.0000 C.ar    1  UNL1        0.1625
     33 C          11.5650    2.9910    0.0000 C.ar    1  UNL1        0.2006
     34 H           5.6720   -4.2599    0.0000 H       1  UNL1        0.0648
     35 H           4.2690   -4.0699    0.0000 H       1  UNL1        0.0647
     36 H           6.5380   -3.1399    0.0000 H       1  UNL1        0.0683
     37 H           4.2690   -1.8299    0.0000 H       1  UNL1        0.0647
     38 H           6.0010   -1.8299    0.0000 H       1  UNL1        0.1084
     39 H           3.8015   -1.4750    0.0000 H       1  UNL1        0.0584
     40 H           3.0044   -1.4750    0.0000 H       1  UNL1        0.0584
     41 H           4.5981   -5.2599    0.0000 H       1  UNL1        0.2100
     42 H           3.4030   -4.5699    0.0000 H       1  UNL1        0.2100
     43 H           6.8671   -4.5699    0.0000 H       1  UNL1        0.2102
     44 H           2.0000   -2.1399    0.0000 H       1  UNL1        0.2095
     45 H           8.2700   -0.7599    0.0000 H       1  UNL1        0.0691
     46 H           5.4641   -0.7599    0.0000 H       1  UNL1        0.0691
     47 H           8.2550    3.5279    0.0000 H       1  UNL1        0.0661
     48 H           4.5981    0.7401    0.0000 H       1  UNL1        0.2922
     49 H           9.7550    1.5880    0.0000 H       1  UNL1        0.0661
     50 H           9.7550    4.3939    0.0000 H       1  UNL1        0.0661
     51 H          11.2550    5.2599    0.0000 H       1  UNL1        0.2923
     52 H          12.1850    1.2589    0.0000 H       1  UNL1        0.2923
     53 H          12.8750    3.5279    0.0000 H       1  UNL1        0.2924
@<TRIPOS>BOND
     1     1    16    1
     2     1    17    1
     3    17     2    1
     4     2    19    1
     5    13     3    1
     6     3    41    1
     7    14     4    1
     8     4    42    1
     9     5    15    1
    10     5    43    1
    11     6    18    1
    12     6    44    1
    13     7    22    1
    14     7    26    1
    15     8    24    1
    16     8    48    1
    17     9    25    2
    18    10    31    1
    19    10    51    1
    20    11    32    1
    21    11    52    1
    22    12    33    1
    23    12    53    1
    24    13    14    1
    25    13    15    1
    26    13    34    1
    27    14    16    1
    28    14    35    1
    29    15    17    1
    30    15    36    1
    31    16    18    1
    32    16    37    1
    33    17    38    1
    34    18    39    1
    35    18    40    1
    36    19    20   ar
    37    19    21   ar
    38    20    22   ar
    39    20    45    1
    40    21    24   ar
    41    21    46    1
    42    22    23   ar
    43    23    24   ar
    44    23    25    1
    45    25    26    1
    46    26    27    2
    47    27    28    1
    48    27    47    1
    49    28    29   ar
    50    28    30   ar
    51    29    32   ar
    52    29    49    1
    53    30    31   ar
    54    30    50    1
    55    31    33   ar
    56    32    33   ar
