@<TRIPOS>MOLECULE
IMPHY015146
 24 24 0 0 0
SMALL
GASTEIGER

@<TRIPOS>ATOM
      1 C           2.8660    0.0000    0.0000 C.ar    1  UNL1       -0.0444
      2 C           3.7320    0.5000    0.0000 C.ar    1  UNL1       -0.0444
      3 C           2.8660   -1.0000    0.0000 C.ar    1  UNL1       -0.0473
      4 C           4.5981   -0.0000    0.0000 C.ar    1  UNL1       -0.0473
      5 C           3.7320   -1.5000    0.0000 C.ar    1  UNL1       -0.0583
      6 C           4.5981   -1.0000    0.0000 C.ar    1  UNL1       -0.0583
      7 C           2.0000    0.5000    0.0000 C.3     1  UNL1       -0.0392
      8 C           3.7320    1.5000    0.0000 C.3     1  UNL1       -0.0392
      9 C           2.0000   -1.5000    0.0000 C.3     1  UNL1       -0.0395
     10 C           5.4641    0.5000    0.0000 C.3     1  UNL1       -0.0395
     11 H           3.7320   -2.1200    0.0000 H       1  UNL1        0.0620
     12 H           5.1350   -1.3100    0.0000 H       1  UNL1        0.0620
     13 H           2.3100    1.0369    0.0000 H       1  UNL1        0.0278
     14 H           1.4631    0.8100    0.0000 H       1  UNL1        0.0278
     15 H           1.6900   -0.0369    0.0000 H       1  UNL1        0.0278
     16 H           4.3520    1.5000    0.0000 H       1  UNL1        0.0278
     17 H           3.7320    2.1200    0.0000 H       1  UNL1        0.0278
     18 H           3.1120    1.5000    0.0000 H       1  UNL1        0.0278
     19 H           1.6900   -0.9631    0.0000 H       1  UNL1        0.0278
     20 H           1.4631   -1.8100    0.0000 H       1  UNL1        0.0278
     21 H           2.3100   -2.0369    0.0000 H       1  UNL1        0.0278
     22 H           5.7741   -0.0369    0.0000 H       1  UNL1        0.0278
     23 H           6.0010    0.8100    0.0000 H       1  UNL1        0.0278
     24 H           5.1541    1.0369    0.0000 H       1  UNL1        0.0278
@<TRIPOS>BOND
     1     1     2   ar
     2     1     3   ar
     3     1     7    1
     4     2     4   ar
     5     2     8    1
     6     3     5   ar
     7     3     9    1
     8     4     6   ar
     9     4    10    1
    10     5     6   ar
    11     5    11    1
    12     6    12    1
    13     7    13    1
    14     7    14    1
    15     7    15    1
    16     8    16    1
    17     8    17    1
    18     8    18    1
    19     9    19    1
    20     9    20    1
    21     9    21    1
    22    10    22    1
    23    10    23    1
    24    10    24    1
