@<TRIPOS>MOLECULE
IMPHY007758
 24 24 0 0 0
SMALL
GASTEIGER

@<TRIPOS>ATOM
      1 O           2.8660   -2.5000    0.0000 O.3     1  UNL1       -0.4951
      2 O           4.5981    1.5000    0.0000 O.2     1  UNL1       -0.2974
      3 C           2.8660    0.5000    0.0000 C.ar    1  UNL1       -0.0401
      4 C           2.8660    1.5000    0.0000 C.3     1  UNL1        0.0307
      5 C           2.0000    0.0000    0.0000 C.ar    1  UNL1       -0.0547
      6 C           3.7320    0.0000    0.0000 C.ar    1  UNL1       -0.0547
      7 C           2.8660   -1.5000    0.0000 C.ar    1  UNL1        0.1201
      8 C           2.0000   -1.0000    0.0000 C.ar    1  UNL1       -0.0197
      9 C           3.7320   -1.0000    0.0000 C.ar    1  UNL1       -0.0197
     10 C           3.7320    2.0000    0.0000 C.2     1  UNL1        0.1346
     11 C           3.7320    3.0000    0.0000 C.3     1  UNL1       -0.0057
     12 C           2.0000   -3.0000    0.0000 C.3     1  UNL1        0.0788
     13 H           2.6540    2.0826    0.0000 H       1  UNL1        0.0390
     14 H           2.2554    1.3923    0.0000 H       1  UNL1        0.0390
     15 H           1.4631    0.3100    0.0000 H       1  UNL1        0.0622
     16 H           4.2690    0.3100    0.0000 H       1  UNL1        0.0622
     17 H           1.4631   -1.3100    0.0000 H       1  UNL1        0.0654
     18 H           4.2690   -1.3100    0.0000 H       1  UNL1        0.0654
     19 H           4.3520    3.0000    0.0000 H       1  UNL1        0.0306
     20 H           3.7320    3.6200    0.0000 H       1  UNL1        0.0306
     21 H           3.1120    3.0000    0.0000 H       1  UNL1        0.0306
     22 H           1.6900   -2.4631    0.0000 H       1  UNL1        0.0660
     23 H           1.4631   -3.3100    0.0000 H       1  UNL1        0.0660
     24 H           2.3100   -3.5369    0.0000 H       1  UNL1        0.0660
@<TRIPOS>BOND
     1     1     7    1
     2     1    12    1
     3     2    10    2
     4     3     4    1
     5     3     5   ar
     6     3     6   ar
     7     4    10    1
     8     4    13    1
     9     4    14    1
    10     5     8   ar
    11     5    15    1
    12     6     9   ar
    13     6    16    1
    14     7     8   ar
    15     7     9   ar
    16     8    17    1
    17     9    18    1
    18    10    11    1
    19    11    19    1
    20    11    20    1
    21    11    21    1
    22    12    22    1
    23    12    23    1
    24    12    24    1
