@<TRIPOS>MOLECULE
IMPHY009130
 70 75 0 0 0
SMALL
GASTEIGER

@<TRIPOS>ATOM
      1 O           2.0000    2.7762    0.0000 O.3     1  UNL1       -0.3649
      2 O           2.8665    4.2762    0.0000 O.3     1  UNL1       -0.3846
      3 O           6.3846    0.2311    0.0000 O.2     1  UNL1       -0.2968
      4 O           6.3688    3.2731    0.0000 O.2     1  UNL1       -0.2920
      5 O           3.7529   -2.6998    0.0000 O.3     1  UNL1       -0.4575
      6 O           2.4548   -3.8466    0.0000 O.2     1  UNL1       -0.2453
      7 C           3.7326    1.7762    0.0000 C.3     1  UNL1       -0.0042
      8 C           3.7165    0.7347    0.0000 C.3     1  UNL1       -0.0231
      9 C           4.5986    2.2762    0.0000 C.3     1  UNL1       -0.0136
     10 C           2.8665    2.2762    0.0000 C.3     1  UNL1        0.0915
     11 C           2.8665    3.2762    0.0000 C.3     1  UNL1        0.1153
     12 C           4.6145    0.2069    0.0000 C.3     1  UNL1        0.0325
     13 C           4.5986    3.2762    0.0000 C.3     1  UNL1        0.0651
     14 C           3.7326    3.7762    0.0000 C.3     1  UNL1        0.1104
     15 C           4.3888   -0.8036    0.0000 C.3     1  UNL1       -0.0227
     16 C           2.9435    0.0458    0.0000 C.3     1  UNL1       -0.0487
     17 C           5.5086    1.7693    0.0000 C.3     1  UNL1        0.0106
     18 C           3.3582   -0.9030    0.0000 C.3     1  UNL1       -0.0487
     19 C           5.5166    0.7277    0.0000 C.2     1  UNL1        0.1400
     20 C           3.7165    4.8177    0.0000 C.3     1  UNL1       -0.0019
     21 C           5.4767   -0.2997    0.0000 C.3     1  UNL1       -0.0523
     22 C           5.4646    2.7762    0.0000 C.3     1  UNL1       -0.0495
     23 C           5.0509   -1.5531    0.0000 C.3     1  UNL1       -0.0026
     24 C           5.5086    3.7830    0.0000 C.2     1  UNL1        0.1647
     25 C           4.6145    5.3454    0.0000 C.2     1  UNL1       -0.0779
     26 C           5.5166    4.8246    0.0000 C.2     1  UNL1       -0.0224
     27 C           4.7329   -2.5012    0.0000 C.3     1  UNL1        0.1099
     28 C           6.0310   -1.3544    0.0000 C.3     1  UNL1       -0.0588
     29 C           5.3950   -3.2506    0.0000 C.3     1  UNL1        0.0063
     30 C           5.0770   -4.1987    0.0000 C.2     1  UNL1       -0.0595
     31 C           3.4349   -3.6479    0.0000 C.2     1  UNL1        0.3351
     32 C           4.0970   -4.3974    0.0000 C.2     1  UNL1        0.0326
     33 C           5.7391   -4.9481    0.0000 C.3     1  UNL1       -0.0429
     34 C           3.7790   -5.3454    0.0000 C.3     1  UNL1       -0.0330
     35 H           2.9932    1.3569    0.0000 H       1  UNL1        0.0333
     36 H           2.9436    1.0884    0.0000 H       1  UNL1        0.0314
     37 H           5.3314    2.7069    0.0000 H       1  UNL1        0.0319
     38 H           2.5566    1.7392    0.0000 H       1  UNL1        0.0626
     39 H           2.5566    3.8132    0.0000 H       1  UNL1        0.0651
     40 H           4.0771   -1.5944    0.0000 H       1  UNL1        0.0314
     41 H           2.5819    0.5494    0.0000 H       1  UNL1        0.0268
     42 H           2.4046   -0.2609    0.0000 H       1  UNL1        0.0268
     43 H           6.1202    1.6680    0.0000 H       1  UNL1        0.0345
     44 H           5.7131    2.3546    0.0000 H       1  UNL1        0.0345
     45 H           2.7671   -1.0902    0.0000 H       1  UNL1        0.0268
     46 H           3.4822   -1.5105    0.0000 H       1  UNL1        0.0268
     47 H           3.4985    5.3981    0.0000 H       1  UNL1        0.0336
     48 H           3.1074    4.7022    0.0000 H       1  UNL1        0.0336
     49 H           5.1626   -0.8343    0.0000 H       1  UNL1        0.0239
     50 H           6.0112   -0.6139    0.0000 H       1  UNL1        0.0239
     51 H           5.7908    0.2348    0.0000 H       1  UNL1        0.0239
     52 H           5.1546    2.2393    0.0000 H       1  UNL1        0.0240
     53 H           6.0016    2.4662    0.0000 H       1  UNL1        0.0240
     54 H           5.7746    3.3131    0.0000 H       1  UNL1        0.0240
     55 H           5.2481   -0.9652    0.0000 H       1  UNL1        0.0337
     56 H           2.8665    4.8962    0.0000 H       1  UNL1        0.2103
     57 H           4.6122    5.9654    0.0000 H       1  UNL1        0.0574
     58 H           6.0548    5.1326    0.0000 H       1  UNL1        0.0649
     59 H           4.1702   -1.8642    0.0000 H       1  UNL1        0.0740
     60 H           6.1542   -1.9620    0.0000 H       1  UNL1        0.0234
     61 H           6.6386   -1.2312    0.0000 H       1  UNL1        0.0234
     62 H           5.9078   -0.7468    0.0000 H       1  UNL1        0.0234
     63 H           5.9397   -3.5468    0.0000 H       1  UNL1        0.0346
     64 H           5.7813   -2.7656    0.0000 H       1  UNL1        0.0346
     65 H           5.2745   -5.3586    0.0000 H       1  UNL1        0.0275
     66 H           6.1496   -5.4128    0.0000 H       1  UNL1        0.0275
     67 H           6.2038   -4.5376    0.0000 H       1  UNL1        0.0275
     68 H           3.1912   -5.1483    0.0000 H       1  UNL1        0.0280
     69 H           3.5818   -5.9333    0.0000 H       1  UNL1        0.0280
     70 H           4.3668   -5.5426    0.0000 H       1  UNL1        0.0280
@<TRIPOS>BOND
     1    10     1    1
     2    11     1    1
     3    14     2    1
     4     2    56    1
     5     3    19    2
     6     4    24    2
     7     5    27    1
     8     5    31    1
     9     6    31    2
    10     7     8    1
    11     7     9    1
    12     7    10    1
    13     7    35    1
    14     8    12    1
    15     8    16    1
    16     8    36    1
    17     9    13    1
    18     9    17    1
    19     9    37    1
    20    10    11    1
    21    10    38    1
    22    11    14    1
    23    11    39    1
    24    12    15    1
    25    12    19    1
    26    12    21    1
    27    13    14    1
    28    13    22    1
    29    13    24    1
    30    14    20    1
    31    15    18    1
    32    15    23    1
    33    15    40    1
    34    16    18    1
    35    16    41    1
    36    16    42    1
    37    17    19    1
    38    17    43    1
    39    17    44    1
    40    18    45    1
    41    18    46    1
    42    20    25    1
    43    20    47    1
    44    20    48    1
    45    21    49    1
    46    21    50    1
    47    21    51    1
    48    22    52    1
    49    22    53    1
    50    22    54    1
    51    23    27    1
    52    23    28    1
    53    23    55    1
    54    24    26    1
    55    25    26    2
    56    25    57    1
    57    26    58    1
    58    27    29    1
    59    27    59    1
    60    28    60    1
    61    28    61    1
    62    28    62    1
    63    29    30    1
    64    29    63    1
    65    29    64    1
    66    30    32    2
    67    30    33    1
    68    31    32    1
    69    32    34    1
    70    33    65    1
    71    33    66    1
    72    33    67    1
    73    34    68    1
    74    34    69    1
    75    34    70    1
