@<TRIPOS>MOLECULE
IMPHY013616
 52 54 0 0 0
SMALL
GASTEIGER

@<TRIPOS>ATOM
      1 O           4.8442   -1.5518    0.0000 O.3     1  UNL1       -0.3659
      2 O           4.5450    1.2557    0.0000 O.3     1  UNL1       -0.3727
      3 O           3.4611   -0.2270    0.0000 O.2     1  UNL1       -0.2933
      4 O           7.8572    0.2775    0.0000 O.2     1  UNL1       -0.2872
      5 C           2.9230   -1.3499    0.0000 C.3     1  UNL1       -0.0086
      6 C           3.9106   -1.1934    0.0000 C.3     1  UNL1        0.0650
      7 C           5.2026   -0.6182    0.0000 C.3     1  UNL1        0.0860
      8 C           4.4977   -1.9906    0.0000 C.3     1  UNL1       -0.0232
      9 C           5.4022   -1.5880    0.0000 C.3     1  UNL1       -0.0180
     10 C           2.2936   -0.5727    0.0000 C.3     1  UNL1       -0.0449
     11 C           2.6520    0.3608    0.0000 C.3     1  UNL1       -0.0431
     12 C           2.0000   -1.7348    0.0000 C.3     1  UNL1       -0.0575
     13 C           2.8421   -2.3466    0.0000 C.3     1  UNL1       -0.0575
     14 C           5.9926   -0.9958    0.0000 C.2     1  UNL1       -0.0425
     15 C           3.5656    0.7676    0.0000 C.3     1  UNL1        0.0183
     16 C           4.7768    0.4501    0.0000 C.3     1  UNL1       -0.0322
     17 C           5.2881    0.5865    0.0000 C.3     1  UNL1        0.1712
     18 C           6.0971   -0.0013    0.0000 C.2     1  UNL1        0.0407
     19 C           4.3746    0.1798    0.0000 C.2     1  UNL1        0.1760
     20 C           5.5971    1.5376    0.0000 C.2     1  UNL1       -0.0345
     21 C           3.6701    1.7621    0.0000 C.3     1  UNL1       -0.0556
     22 C           6.9062    0.5865    0.0000 C.2     1  UNL1        0.1881
     23 C           6.5971    1.5376    0.0000 C.2     1  UNL1       -0.0039
     24 C           7.1849    2.3466    0.0000 C.3     1  UNL1       -0.0363
     25 H           3.5879   -1.9798    0.0000 H       1  UNL1        0.0602
     26 H           3.9734   -2.3214    0.0000 H       1  UNL1        0.0291
     27 H           4.7900   -2.5374    0.0000 H       1  UNL1        0.0291
     28 H           5.6130   -2.1710    0.0000 H       1  UNL1        0.0297
     29 H           5.9989   -1.4196    0.0000 H       1  UNL1        0.0297
     30 H           1.7622   -0.2534    0.0000 H       1  UNL1        0.0271
     31 H           1.8869   -1.0406    0.0000 H       1  UNL1        0.0271
     32 H           2.5550    0.9732    0.0000 H       1  UNL1        0.0272
     33 H           2.0354    0.4257    0.0000 H       1  UNL1        0.0272
     34 H           1.7614   -1.1625    0.0000 H       1  UNL1        0.0236
     35 H           1.4278   -1.9734    0.0000 H       1  UNL1        0.0236
     36 H           2.2386   -2.3070    0.0000 H       1  UNL1        0.0236
     37 H           2.2242   -2.2965    0.0000 H       1  UNL1        0.0236
     38 H           2.7920   -2.9646    0.0000 H       1  UNL1        0.0236
     39 H           3.4601   -2.3967    0.0000 H       1  UNL1        0.0236
     40 H           6.2697   -1.5504    0.0000 H       1  UNL1        0.0605
     41 H           4.1320    1.0198    0.0000 H       1  UNL1        0.0376
     42 H           5.3528    0.6796    0.0000 H       1  UNL1        0.0260
     43 H           4.5473    1.0260    0.0000 H       1  UNL1        0.0260
     44 H           4.2009    0.2205    0.0000 H       1  UNL1        0.0260
     45 H           5.2327    2.0392    0.0000 H       1  UNL1        0.0612
     46 H           4.2867    1.6973    0.0000 H       1  UNL1        0.0236
     47 H           3.7349    2.3787    0.0000 H       1  UNL1        0.0236
     48 H           3.0535    1.8269    0.0000 H       1  UNL1        0.0236
     49 H           4.6739    1.8621    0.0000 H       1  UNL1        0.2115
     50 H           7.6865    1.9822    0.0000 H       1  UNL1        0.0279
     51 H           7.5493    2.8482    0.0000 H       1  UNL1        0.0279
     52 H           6.6833    2.7110    0.0000 H       1  UNL1        0.0279
@<TRIPOS>BOND
     1     1     6    1
     2     1     7    1
     3    17     2    1
     4     2    49    1
     5     3    19    2
     6     4    22    2
     7     5     6    1
     8     5    10    1
     9     5    12    1
    10     5    13    1
    11     6     8    1
    12     6    25    1
    13     7     9    1
    14     7    14    1
    15     7    16    1
    16     8     9    1
    17     8    26    1
    18     8    27    1
    19     9    28    1
    20     9    29    1
    21    10    11    1
    22    10    30    1
    23    10    31    1
    24    11    15    1
    25    11    32    1
    26    11    33    1
    27    12    34    1
    28    12    35    1
    29    12    36    1
    30    13    37    1
    31    13    38    1
    32    13    39    1
    33    14    18    2
    34    14    40    1
    35    15    19    1
    36    15    21    1
    37    15    41    1
    38    16    42    1
    39    16    43    1
    40    16    44    1
    41    17    18    1
    42    17    19    1
    43    17    20    1
    44    18    22    1
    45    20    23    2
    46    20    45    1
    47    21    46    1
    48    21    47    1
    49    21    48    1
    50    22    23    1
    51    23    24    1
    52    24    50    1
    53    24    51    1
    54    24    52    1
