@<TRIPOS>MOLECULE
IMPHY015446
 41 40 0 0 0
SMALL
GASTEIGER

@<TRIPOS>ATOM
      1 O          14.1244    0.2500    0.0000 O.2     1  UNL1       -0.3010
      2 C           4.5981   -0.2500    0.0000 C.3     1  UNL1       -0.0528
      3 C           5.4641    0.2500    0.0000 C.3     1  UNL1       -0.0496
      4 C           3.7320    0.2500    0.0000 C.3     1  UNL1       -0.0533
      5 C           9.7942   -0.2500    0.0000 C.3     1  UNL1       -0.0496
      6 C          10.6603    0.2500    0.0000 C.3     1  UNL1       -0.0524
      7 C           6.3301   -0.2500    0.0000 C.3     1  UNL1       -0.0348
      8 C           8.9282    0.2500    0.0000 C.3     1  UNL1       -0.0348
      9 C          11.5263   -0.2500    0.0000 C.3     1  UNL1       -0.0466
     10 C           2.8660   -0.2500    0.0000 C.3     1  UNL1       -0.0559
     11 C           7.1962    0.2500    0.0000 C.2     1  UNL1       -0.0879
     12 C           8.0622   -0.2500    0.0000 C.2     1  UNL1       -0.0879
     13 C          12.3923    0.2500    0.0000 C.3     1  UNL1        0.0028
     14 C           2.0000    0.2500    0.0000 C.3     1  UNL1       -0.0653
     15 C          13.2583   -0.2500    0.0000 C.2     1  UNL1        0.1203
     16 H           4.1996   -0.7249    0.0000 H       1  UNL1        0.0265
     17 H           4.9966   -0.7249    0.0000 H       1  UNL1        0.0265
     18 H           5.8626    0.7249    0.0000 H       1  UNL1        0.0268
     19 H           5.0656    0.7249    0.0000 H       1  UNL1        0.0268
     20 H           4.1306    0.7249    0.0000 H       1  UNL1        0.0265
     21 H           3.3335    0.7249    0.0000 H       1  UNL1        0.0265
     22 H           9.3957   -0.7249    0.0000 H       1  UNL1        0.0268
     23 H          10.1928   -0.7249    0.0000 H       1  UNL1        0.0268
     24 H          11.0588    0.7249    0.0000 H       1  UNL1        0.0265
     25 H          10.2617    0.7249    0.0000 H       1  UNL1        0.0265
     26 H           5.9316   -0.7249    0.0000 H       1  UNL1        0.0307
     27 H           6.7287   -0.7249    0.0000 H       1  UNL1        0.0307
     28 H           9.3267    0.7249    0.0000 H       1  UNL1        0.0307
     29 H           8.5297    0.7249    0.0000 H       1  UNL1        0.0307
     30 H          11.1278   -0.7249    0.0000 H       1  UNL1        0.0269
     31 H          11.9248   -0.7249    0.0000 H       1  UNL1        0.0269
     32 H           2.4675   -0.7249    0.0000 H       1  UNL1        0.0263
     33 H           3.2646   -0.7249    0.0000 H       1  UNL1        0.0263
     34 H           7.1962    0.8700    0.0000 H       1  UNL1        0.0569
     35 H           8.0622   -0.8700    0.0000 H       1  UNL1        0.0569
     36 H          12.7908    0.7249    0.0000 H       1  UNL1        0.0339
     37 H          11.9938    0.7249    0.0000 H       1  UNL1        0.0339
     38 H           2.3100    0.7869    0.0000 H       1  UNL1        0.0230
     39 H           1.4631    0.5600    0.0000 H       1  UNL1        0.0230
     40 H           1.6900   -0.2869    0.0000 H       1  UNL1        0.0230
     41 H          13.2583   -0.8700    0.0000 H       1  UNL1        0.1026
@<TRIPOS>BOND
     1     1    15    2
     2     2     3    1
     3     2     4    1
     4     2    16    1
     5     2    17    1
     6     3     7    1
     7     3    18    1
     8     3    19    1
     9     4    10    1
    10     4    20    1
    11     4    21    1
    12     5     6    1
    13     5     8    1
    14     5    22    1
    15     5    23    1
    16     6     9    1
    17     6    24    1
    18     6    25    1
    19     7    11    1
    20     7    26    1
    21     7    27    1
    22     8    12    1
    23     8    28    1
    24     8    29    1
    25     9    13    1
    26     9    30    1
    27     9    31    1
    28    10    14    1
    29    10    32    1
    30    10    33    1
    31    11    12    2
    32    11    34    1
    33    12    35    1
    34    13    15    1
    35    13    36    1
    36    13    37    1
    37    14    38    1
    38    14    39    1
    39    14    40    1
    40    15    41    1
