@<TRIPOS>MOLECULE
IMPHY013262
 48 50 0 0 0
SMALL
GASTEIGER

@<TRIPOS>ATOM
      1 O           5.5220    0.5159    0.0000 O.3     1  UNL1       -0.4595
      2 O           2.9239    0.0159    0.0000 O.3     1  UNL1       -0.4622
      3 O           4.8668   -2.6630    0.0000 O.3     1  UNL1       -0.3846
      4 O           3.0035   -2.4698    0.0000 O.3     1  UNL1       -0.3754
      5 O           6.9662   -0.5716    0.0000 O.2     1  UNL1       -0.2504
      6 O           2.0000   -1.3667    0.0000 O.2     1  UNL1       -0.2475
      7 N           4.8651    2.9878    0.0000 N.3     1  UNL1       -0.2954
      8 C           4.6559    2.0160    0.0000 C.3     1  UNL1        0.0534
      9 C           3.7899    1.5159    0.0000 C.3     1  UNL1        0.0135
     10 C           5.5220    1.5159    0.0000 C.3     1  UNL1        0.1200
     11 C           4.7748    1.3008    0.0000 C.3     1  UNL1       -0.0327
     12 C           5.3695    2.1149    0.0000 C.3     1  UNL1       -0.0003
     13 C           5.8539    3.0908    0.0000 C.3     1  UNL1        0.0027
     14 C           6.2590    2.1830    0.0000 C.3     1  UNL1       -0.0014
     15 C           3.7899    0.5159    0.0000 C.3     1  UNL1        0.0969
     16 C           4.6310   -1.6912    0.0000 C.3     1  UNL1        0.1145
     17 C           5.1310   -0.8251    0.0000 C.3     1  UNL1        0.0852
     18 C           3.6310   -1.6912    0.0000 C.3     1  UNL1        0.1885
     19 C           5.9970   -0.3251    0.0000 C.2     1  UNL1        0.3131
     20 C           2.9239   -0.9841    0.0000 C.2     1  UNL1        0.3418
     21 C           5.6028   -1.9269    0.0000 C.3     1  UNL1       -0.0320
     22 C           4.4239   -0.1180    0.0000 C.3     1  UNL1       -0.0495
     23 C           3.6985   -2.6889    0.0000 C.3     1  UNL1       -0.0227
     24 H           4.1548    2.3810    0.0000 H       1  UNL1        0.0503
     25 H           3.2530    1.8260    0.0000 H       1  UNL1        0.0350
     26 H           6.0887    1.2645    0.0000 H       1  UNL1        0.0750
     27 H           4.5601    0.7192    0.0000 H       1  UNL1        0.0282
     28 H           5.3212    1.0078    0.0000 H       1  UNL1        0.0282
     29 H           5.8148    1.6835    0.0000 H       1  UNL1        0.0427
     30 H           5.8583    2.4963    0.0000 H       1  UNL1        0.0427
     31 H           6.4435    3.2826    0.0000 H       1  UNL1        0.0428
     32 H           5.7251    3.6973    0.0000 H       1  UNL1        0.0428
     33 H           6.6244    1.6822    0.0000 H       1  UNL1        0.0314
     34 H           6.7955    2.4938    0.0000 H       1  UNL1        0.0314
     35 H           4.0020   -0.0667    0.0000 H       1  UNL1        0.0701
     36 H           4.4005    0.6236    0.0000 H       1  UNL1        0.0701
     37 H           4.5163   -0.9061    0.0000 H       1  UNL1        0.0440
     38 H           5.4566   -2.5294    0.0000 H       1  UNL1        0.0258
     39 H           6.2053   -2.0731    0.0000 H       1  UNL1        0.0258
     40 H           5.7490   -1.3244    0.0000 H       1  UNL1        0.0258
     41 H           4.8623    0.3204    0.0000 H       1  UNL1        0.0238
     42 H           3.9855    0.3204    0.0000 H       1  UNL1        0.0238
     43 H           3.9855   -0.5564    0.0000 H       1  UNL1        0.0238
     44 H           3.0799   -2.7307    0.0000 H       1  UNL1        0.0264
     45 H           3.7403   -3.3075    0.0000 H       1  UNL1        0.0264
     46 H           4.3170   -2.6470    0.0000 H       1  UNL1        0.0264
     47 H           4.4180   -3.0908    0.0000 H       1  UNL1        0.2103
     48 H           2.3909   -2.3743    0.0000 H       1  UNL1        0.2110
@<TRIPOS>BOND
     1     1    10    1
     2     1    19    1
     3     2    15    1
     4     2    20    1
     5     3    16    1
     6     3    47    1
     7     4    18    1
     8     4    48    1
     9     5    19    2
    10     6    20    2
    11     7     8    1
    12     7    12    1
    13     7    13    1
    14     8     9    1
    15     8    10    1
    16     8    24    1
    17     9    11    1
    18     9    15    1
    19     9    25    1
    20    10    14    1
    21    10    26    1
    22    11    12    1
    23    11    27    1
    24    11    28    1
    25    12    29    1
    26    12    30    1
    27    13    14    1
    28    13    31    1
    29    13    32    1
    30    14    33    1
    31    14    34    1
    32    15    35    1
    33    15    36    1
    34    16    17    1
    35    16    18    1
    36    16    21    1
    37    17    19    1
    38    17    22    1
    39    17    37    1
    40    18    20    1
    41    18    23    1
    42    21    38    1
    43    21    39    1
    44    21    40    1
    45    22    41    1
    46    22    42    1
    47    22    43    1
    48    23    44    1
    49    23    45    1
    50    23    46    1
