@<TRIPOS>MOLECULE
IMPHY001090
 38 40 0 0 0
SMALL
GASTEIGER

@<TRIPOS>ATOM
      1 O           6.0682   -0.4254    0.0000 O.2     1  UNL1       -0.4470
      2 O           4.3198   -1.4600    0.0000 O.3     1  UNL1       -0.4885
      3 O           7.8003    1.5746    0.0000 O.3     1  UNL1       -0.5007
      4 O           4.3198    2.6092    0.0000 O.3     1  UNL1       -0.5058
      5 O           2.5381   -0.4495    0.0000 O.3     1  UNL1       -0.5031
      6 O           6.0682    2.5746    0.0000 O.2     1  UNL1       -0.2830
      7 O          10.3984   -1.9254    0.0000 O.3     1  UNL1       -0.4951
      8 C           5.2022    1.0746    0.0000 C.ar    1  UNL1        0.1128
      9 C           5.2022    0.0746    0.0000 C.ar    1  UNL1        0.1881
     10 C           6.9343    0.0746    0.0000 C.ar    1  UNL1        0.1808
     11 C           6.0682    1.5746    0.0000 C.ar    1  UNL1        0.2380
     12 C           4.3083   -0.4601    0.0000 C.ar    1  UNL1        0.2049
     13 C           6.9343    1.0746    0.0000 C.ar    1  UNL1        0.2082
     14 C           7.8003   -0.4254    0.0000 C.ar    1  UNL1        0.0213
     15 C           4.3083    1.6093    0.0000 C.ar    1  UNL1        0.1350
     16 C           3.4022    0.0538    0.0000 C.ar    1  UNL1        0.1657
     17 C           3.4022    1.0954    0.0000 C.ar    1  UNL1        0.0259
     18 C           7.8003   -1.4254    0.0000 C.ar    1  UNL1       -0.0475
     19 C           8.6663    0.0746    0.0000 C.ar    1  UNL1       -0.0475
     20 C           8.6663   -1.9254    0.0000 C.ar    1  UNL1       -0.0193
     21 C           9.5323   -0.4254    0.0000 C.ar    1  UNL1       -0.0193
     22 C           9.5323   -1.4254    0.0000 C.ar    1  UNL1        0.1201
     23 C           3.4597   -1.9700    0.0000 C.3     1  UNL1        0.0791
     24 C          10.3984   -2.9254    0.0000 C.3     1  UNL1        0.0788
     25 H           2.8665    1.4075    0.0000 H       1  UNL1        0.0692
     26 H           7.2634   -1.7354    0.0000 H       1  UNL1        0.0626
     27 H           8.6663    0.6946    0.0000 H       1  UNL1        0.0626
     28 H           8.6663   -2.5454    0.0000 H       1  UNL1        0.0654
     29 H          10.0693   -0.1154    0.0000 H       1  UNL1        0.0654
     30 H           7.8003    2.1946    0.0000 H       1  UNL1        0.2924
     31 H           3.7865    2.9254    0.0000 H       1  UNL1        0.2922
     32 H           2.0000   -0.1416    0.0000 H       1  UNL1        0.2923
     33 H           3.1435   -1.4366    0.0000 H       1  UNL1        0.0660
     34 H           2.9263   -2.2862    0.0000 H       1  UNL1        0.0660
     35 H           3.7758   -2.5033    0.0000 H       1  UNL1        0.0660
     36 H           9.7784   -2.9254    0.0000 H       1  UNL1        0.0660
     37 H          10.3984   -3.5454    0.0000 H       1  UNL1        0.0660
     38 H          11.0184   -2.9254    0.0000 H       1  UNL1        0.0660
@<TRIPOS>BOND
     1     1     9   ar
     2     1    10   ar
     3     2    12    1
     4     2    23    1
     5     3    13    1
     6     3    30    1
     7     4    15    1
     8     4    31    1
     9     5    16    1
    10     5    32    1
    11     6    11    2
    12     7    22    1
    13     7    24    1
    14     8     9   ar
    15     8    11   ar
    16     8    15   ar
    17     9    12   ar
    18    10    13   ar
    19    10    14    1
    20    11    13   ar
    21    12    16   ar
    22    14    18   ar
    23    14    19   ar
    24    15    17   ar
    25    16    17   ar
    26    17    25    1
    27    18    20   ar
    28    18    26    1
    29    19    21   ar
    30    19    27    1
    31    20    22   ar
    32    20    28    1
    33    21    22   ar
    34    21    29    1
    35    23    33    1
    36    23    34    1
    37    23    35    1
    38    24    36    1
    39    24    37    1
    40    24    38    1
