@<TRIPOS>MOLECULE
IMPHY003476
 15 14 0 0 0
SMALL
GASTEIGER

@<TRIPOS>ATOM
      1 O           2.8660   -0.7500    0.0000 O.2     1  UNL1       -0.2973
      2 O           4.5981   -0.7500    0.0000 O.2     1  UNL1       -0.2973
      3 C           3.7320    0.7500    0.0000 C.3     1  UNL1        0.0638
      4 C           2.8660    0.2500    0.0000 C.2     1  UNL1        0.1374
      5 C           4.5981    0.2500    0.0000 C.2     1  UNL1        0.1374
      6 C           2.0000    0.7500    0.0000 C.3     1  UNL1       -0.0056
      7 C           5.4641    0.7500    0.0000 C.3     1  UNL1       -0.0056
      8 H           4.1306    1.2250    0.0000 H       1  UNL1        0.0419
      9 H           3.3335    1.2250    0.0000 H       1  UNL1        0.0419
     10 H           2.3100    1.2869    0.0000 H       1  UNL1        0.0306
     11 H           1.4631    1.0600    0.0000 H       1  UNL1        0.0306
     12 H           1.6900    0.2131    0.0000 H       1  UNL1        0.0306
     13 H           5.7741    0.2131    0.0000 H       1  UNL1        0.0306
     14 H           6.0010    1.0600    0.0000 H       1  UNL1        0.0306
     15 H           5.1541    1.2869    0.0000 H       1  UNL1        0.0306
@<TRIPOS>BOND
     1     1     4    2
     2     2     5    2
     3     3     4    1
     4     3     5    1
     5     3     8    1
     6     3     9    1
     7     4     6    1
     8     5     7    1
     9     6    10    1
    10     6    11    1
    11     6    12    1
    12     7    13    1
    13     7    14    1
    14     7    15    1
