@<TRIPOS>MOLECULE
IMPHY006144
 79 84 0 0 0
SMALL
GASTEIGER

@<TRIPOS>ATOM
      1 O           2.5381   -2.1706    0.0000 O.3     1  UNL1       -0.3907
      2 O           4.3283   -3.9130    0.0000 O.3     1  UNL1       -0.4802
      3 O           2.8184   -3.0644    0.0000 O.2     1  UNL1       -0.2503
      4 O          10.4564    3.3067    0.0000 O.3     1  UNL1       -0.4575
      5 O          11.7544    4.4535    0.0000 O.2     1  UNL1       -0.2453
      6 C           6.0682   -0.1464    0.0000 C.3     1  UNL1       -0.0194
      7 C           5.2022   -0.6464    0.0000 C.3     1  UNL1       -0.0188
      8 C           5.2020    0.3540    0.0000 C.3     1  UNL1       -0.0401
      9 C           6.9343   -0.6464    0.0000 C.3     1  UNL1       -0.0289
     10 C           5.2022   -1.6464    0.0000 C.3     1  UNL1       -0.0169
     11 C           7.8443   -0.1396    0.0000 C.3     1  UNL1       -0.0231
     12 C           6.0522    0.8951    0.0000 C.3     1  UNL1       -0.0460
     13 C           7.8523    0.9020    0.0000 C.3     1  UNL1       -0.0232
     14 C           4.3083   -0.1117    0.0000 C.3     1  UNL1       -0.0442
     15 C           6.9343   -1.6464    0.0000 C.3     1  UNL1       -0.0489
     16 C           6.9502    1.4229    0.0000 C.3     1  UNL1       -0.0463
     17 C           6.0682   -2.1464    0.0000 C.3     1  UNL1       -0.0483
     18 C           4.3083   -2.1811    0.0000 C.3     1  UNL1        0.0938
     19 C           8.8403    1.2119    0.0000 C.3     1  UNL1       -0.0292
     20 C           8.8274   -0.4646    0.0000 C.3     1  UNL1       -0.0466
     21 C           3.4022   -0.6256    0.0000 C.3     1  UNL1       -0.0253
     22 C           9.4418    0.3690    0.0000 C.3     1  UNL1       -0.0488
     23 C           3.4022   -1.6672    0.0000 C.3     1  UNL1        0.0710
     24 C           7.8366   -1.1395    0.0000 C.3     1  UNL1       -0.0588
     25 C           7.8600    1.9020    0.0000 C.3     1  UNL1       -0.0588
     26 C           9.1583    2.1599    0.0000 C.3     1  UNL1       -0.0030
     27 C           4.8183   -3.0412    0.0000 C.3     1  UNL1       -0.0467
     28 C           3.8183   -3.0528    0.0000 C.2     1  UNL1        0.3135
     29 C          10.1384    2.3586    0.0000 C.3     1  UNL1        0.1096
     30 C           8.4962    2.9094    0.0000 C.3     1  UNL1       -0.0588
     31 C          10.8005    1.6092    0.0000 C.3     1  UNL1        0.0036
     32 C          11.7805    1.8079    0.0000 C.2     1  UNL1       -0.0708
     33 C          11.4364    3.5054    0.0000 C.2     1  UNL1        0.3349
     34 C          12.0985    2.7560    0.0000 C.2     1  UNL1        0.0297
     35 C          13.0786    2.9546    0.0000 C.3     1  UNL1       -0.0332
     36 H           5.4141    0.9366    0.0000 H       1  UNL1        0.0276
     37 H           4.5914    0.4616    0.0000 H       1  UNL1        0.0276
     38 H           7.6671   -1.0771    0.0000 H       1  UNL1        0.0312
     39 H           5.2088   -2.4964    0.0000 H       1  UNL1        0.0318
     40 H           5.8342    1.4755    0.0000 H       1  UNL1        0.0271
     41 H           5.4431    0.7796    0.0000 H       1  UNL1        0.0271
     42 H           4.7129    0.3580    0.0000 H       1  UNL1        0.0272
     43 H           3.9147    0.3673    0.0000 H       1  UNL1        0.0272
     44 H           7.1463   -2.2290    0.0000 H       1  UNL1        0.0268
     45 H           7.5449   -1.5387    0.0000 H       1  UNL1        0.0268
     46 H           7.3475    1.8988    0.0000 H       1  UNL1        0.0271
     47 H           6.5493    1.8958    0.0000 H       1  UNL1        0.0271
     48 H           5.6697   -2.6214    0.0000 H       1  UNL1        0.0269
     49 H           6.4668   -2.6214    0.0000 H       1  UNL1        0.0269
     50 H           9.6810    1.3373    0.0000 H       1  UNL1        0.0310
     51 H           8.5720   -1.0295    0.0000 H       1  UNL1        0.0271
     52 H           9.3624   -0.7779    0.0000 H       1  UNL1        0.0271
     53 H           3.1932   -0.0419    0.0000 H       1  UNL1        0.0291
     54 H           2.7914   -0.7317    0.0000 H       1  UNL1        0.0291
     55 H           9.8994   -0.0493    0.0000 H       1  UNL1        0.0268
     56 H           9.9058    0.7801    0.0000 H       1  UNL1        0.0268
     57 H           2.8647   -1.3582    0.0000 H       1  UNL1        0.0604
     58 H           7.2166   -1.1348    0.0000 H       1  UNL1        0.0235
     59 H           7.8318   -1.7595    0.0000 H       1  UNL1        0.0235
     60 H           8.4566   -1.1443    0.0000 H       1  UNL1        0.0235
     61 H           8.4800    1.8972    0.0000 H       1  UNL1        0.0235
     62 H           7.8648    2.5220    0.0000 H       1  UNL1        0.0235
     63 H           7.2400    1.9068    0.0000 H       1  UNL1        0.0235
     64 H           9.3555    2.7478    0.0000 H       1  UNL1        0.0337
     65 H           4.2850   -3.3574    0.0000 H       1  UNL1        0.0241
     66 H           5.1344   -3.5746    0.0000 H       1  UNL1        0.0241
     67 H           5.3516   -2.7251    0.0000 H       1  UNL1        0.0241
     68 H          10.9714    2.5275    0.0000 H       1  UNL1        0.0740
     69 H           2.0000   -1.8626    0.0000 H       1  UNL1        0.2098
     70 H           8.9609    3.3199    0.0000 H       1  UNL1        0.0234
     71 H           8.0857    3.3740    0.0000 H       1  UNL1        0.0234
     72 H           8.0316    2.4989    0.0000 H       1  UNL1        0.0234
     73 H           4.0245   -4.4535    0.0000 H       1  UNL1        0.2951
     74 H          10.2716    1.2856    0.0000 H       1  UNL1        0.0343
     75 H          11.0273    1.0322    0.0000 H       1  UNL1        0.0343
     76 H          12.1910    1.3432    0.0000 H       1  UNL1        0.0578
     77 H          13.2018    2.3470    0.0000 H       1  UNL1        0.0280
     78 H          13.6862    3.0778    0.0000 H       1  UNL1        0.0280
     79 H          12.9554    3.5623    0.0000 H       1  UNL1        0.0280
@<TRIPOS>BOND
     1    23     1    1
     2     1    69    1
     3     2    28    1
     4     2    73    1
     5     3    28    2
     6     4    29    1
     7     4    33    1
     8     5    33    2
     9     6     7    1
    10     6     8    1
    11     6     9    1
    12     6    12    1
    13     7     8    1
    14     7    10    1
    15     7    14    1
    16     8    36    1
    17     8    37    1
    18     9    11    1
    19     9    15    1
    20     9    38    1
    21    10    17    1
    22    10    18    1
    23    10    39    1
    24    11    13    1
    25    11    20    1
    26    11    24    1
    27    12    16    1
    28    12    40    1
    29    12    41    1
    30    13    16    1
    31    13    19    1
    32    13    25    1
    33    14    21    1
    34    14    42    1
    35    14    43    1
    36    15    17    1
    37    15    44    1
    38    15    45    1
    39    16    46    1
    40    16    47    1
    41    17    48    1
    42    17    49    1
    43    18    23    1
    44    18    27    1
    45    18    28    1
    46    19    22    1
    47    19    26    1
    48    19    50    1
    49    20    22    1
    50    20    51    1
    51    20    52    1
    52    21    23    1
    53    21    53    1
    54    21    54    1
    55    22    55    1
    56    22    56    1
    57    23    57    1
    58    24    58    1
    59    24    59    1
    60    24    60    1
    61    25    61    1
    62    25    62    1
    63    25    63    1
    64    26    29    1
    65    26    30    1
    66    26    64    1
    67    27    65    1
    68    27    66    1
    69    27    67    1
    70    29    31    1
    71    29    68    1
    72    30    70    1
    73    30    71    1
    74    30    72    1
    75    31    32    1
    76    31    74    1
    77    31    75    1
    78    32    34    2
    79    32    76    1
    80    33    34    1
    81    34    35    1
    82    35    77    1
    83    35    78    1
    84    35    79    1
