@<TRIPOS>MOLECULE
IMPHY003677
 74 78 0 0 0
SMALL
GASTEIGER

@<TRIPOS>ATOM
      1 O           6.3301   -2.0000    0.0000 O.3     1  UNL1       -0.3302
      2 O           8.0622   -2.0000    0.0000 O.3     1  UNL1       -0.4608
      3 O           6.3301   -5.0000    0.0000 O.3     1  UNL1       -0.3864
      4 O           4.5981   -4.0000    0.0000 O.3     1  UNL1       -0.3864
      5 O           8.0622   -4.0000    0.0000 O.3     1  UNL1       -0.3829
      6 O           4.5981   -1.0000    0.0000 O.3     1  UNL1       -0.4589
      7 O           2.8660   -1.0000    0.0000 O.2     1  UNL1       -0.2456
      8 O           2.8660    5.0000    0.0000 O.3     1  UNL1       -0.5068
      9 N           8.9282    3.5000    0.0000 N.3     1  UNL1       -0.2949
     10 C           8.0622    4.0000    0.0000 C.3     1  UNL1        0.0145
     11 C           8.2714    4.9718    0.0000 C.3     1  UNL1       -0.0359
     12 C           9.6652    4.1671    0.0000 C.3     1  UNL1       -0.0004
     13 C           9.2601    5.0749    0.0000 C.3     1  UNL1       -0.0388
     14 C           7.1962    3.5000    0.0000 C.3     1  UNL1       -0.0157
     15 C           8.9282    2.5000    0.0000 C.3     1  UNL1        0.0248
     16 C           7.1962    2.5000    0.0000 C.2     1  UNL1       -0.0662
     17 C           8.0622    2.0000    0.0000 C.2     1  UNL1       -0.0272
     18 C           8.0622    1.0000    0.0000 C.ar    1  UNL1       -0.0204
     19 C           6.3301    2.0000    0.0000 C.3     1  UNL1       -0.0431
     20 C           6.3301   -4.0000    0.0000 C.3     1  UNL1        0.1152
     21 C           5.4641   -3.5000    0.0000 C.3     1  UNL1        0.1130
     22 C           7.1962   -3.5000    0.0000 C.3     1  UNL1        0.1454
     23 C           5.4641   -2.5000    0.0000 C.3     1  UNL1        0.1250
     24 C           7.1962   -2.5000    0.0000 C.3     1  UNL1        0.2308
     25 C           7.1962    0.5000    0.0000 C.ar    1  UNL1       -0.0508
     26 C           8.9282    0.5000    0.0000 C.ar    1  UNL1       -0.0508
     27 C           4.5981   -2.0000    0.0000 C.3     1  UNL1        0.1215
     28 C           8.0622   -1.0000    0.0000 C.ar    1  UNL1        0.1240
     29 C           7.1962   -0.5000    0.0000 C.ar    1  UNL1       -0.0193
     30 C           8.9282   -0.5000    0.0000 C.ar    1  UNL1       -0.0193
     31 C           3.7320   -0.5000    0.0000 C.2     1  UNL1        0.3320
     32 C           3.7320    0.5000    0.0000 C.2     1  UNL1        0.0231
     33 C           2.8660    1.0000    0.0000 C.2     1  UNL1       -0.0478
     34 C           2.8660    2.0000    0.0000 C.ar    1  UNL1       -0.0246
     35 C           3.7320    2.5000    0.0000 C.ar    1  UNL1       -0.0511
     36 C           2.0000    2.5000    0.0000 C.ar    1  UNL1       -0.0511
     37 C           3.7320    3.5000    0.0000 C.ar    1  UNL1       -0.0196
     38 C           2.0000    3.5000    0.0000 C.ar    1  UNL1       -0.0196
     39 C           2.8660    4.0000    0.0000 C.ar    1  UNL1        0.1169
     40 H           7.5611    4.3651    0.0000 H       1  UNL1        0.0466
     41 H           8.2723    5.5918    0.0000 H       1  UNL1        0.0281
     42 H           7.6549    5.0379    0.0000 H       1  UNL1        0.0281
     43 H          10.0307    3.6662    0.0000 H       1  UNL1        0.0427
     44 H          10.2017    4.4779    0.0000 H       1  UNL1        0.0427
     45 H           9.8497    5.2666    0.0000 H       1  UNL1        0.0278
     46 H           9.1314    5.6814    0.0000 H       1  UNL1        0.0278
     47 H           6.9841    4.0826    0.0000 H       1  UNL1        0.0325
     48 H           6.5856    3.3923    0.0000 H       1  UNL1        0.0325
     49 H           9.1403    1.9174    0.0000 H       1  UNL1        0.0476
     50 H           9.5388    2.6077    0.0000 H       1  UNL1        0.0476
     51 H           6.0201    2.5369    0.0000 H       1  UNL1        0.0275
     52 H           5.7932    1.6900    0.0000 H       1  UNL1        0.0275
     53 H           6.6401    1.4631    0.0000 H       1  UNL1        0.0275
     54 H           6.8671   -4.3100    0.0000 H       1  UNL1        0.0648
     55 H           4.9272   -3.1900    0.0000 H       1  UNL1        0.0647
     56 H           7.7331   -3.1900    0.0000 H       1  UNL1        0.0683
     57 H           5.4641   -1.8800    0.0000 H       1  UNL1        0.0658
     58 H           7.1962   -1.8800    0.0000 H       1  UNL1        0.1084
     59 H           6.6592    0.8100    0.0000 H       1  UNL1        0.0625
     60 H           9.4651    0.8100    0.0000 H       1  UNL1        0.0625
     61 H           3.9875   -1.8923    0.0000 H       1  UNL1        0.0725
     62 H           4.3860   -2.5826    0.0000 H       1  UNL1        0.0725
     63 H           6.6592   -0.8100    0.0000 H       1  UNL1        0.0654
     64 H           9.4651   -0.8100    0.0000 H       1  UNL1        0.0654
     65 H           5.7932   -5.3100    0.0000 H       1  UNL1        0.2100
     66 H           4.0611   -3.6900    0.0000 H       1  UNL1        0.2100
     67 H           8.5991   -3.6900    0.0000 H       1  UNL1        0.2102
     68 H           4.2690    0.8100    0.0000 H       1  UNL1        0.0689
     69 H           2.3291    0.6900    0.0000 H       1  UNL1        0.0626
     70 H           4.2690    2.1900    0.0000 H       1  UNL1        0.0625
     71 H           1.4631    2.1900    0.0000 H       1  UNL1        0.0625
     72 H           4.2690    3.8100    0.0000 H       1  UNL1        0.0654
     73 H           1.4631    3.8100    0.0000 H       1  UNL1        0.0654
     74 H           2.3291    5.3100    0.0000 H       1  UNL1        0.2921
@<TRIPOS>BOND
     1     1    23    1
     2     1    24    1
     3    24     2    1
     4     2    28    1
     5    20     3    1
     6     3    65    1
     7    21     4    1
     8     4    66    1
     9    22     5    1
    10     5    67    1
    11     6    27    1
    12     6    31    1
    13     7    31    2
    14     8    39    1
    15     8    74    1
    16     9    10    1
    17     9    12    1
    18     9    15    1
    19    10    11    1
    20    10    14    1
    21    10    40    1
    22    11    13    1
    23    11    41    1
    24    11    42    1
    25    12    13    1
    26    12    43    1
    27    12    44    1
    28    13    45    1
    29    13    46    1
    30    14    16    1
    31    14    47    1
    32    14    48    1
    33    15    17    1
    34    15    49    1
    35    15    50    1
    36    16    17    2
    37    16    19    1
    38    17    18    1
    39    18    25   ar
    40    18    26   ar
    41    19    51    1
    42    19    52    1
    43    19    53    1
    44    20    21    1
    45    20    22    1
    46    20    54    1
    47    21    23    1
    48    21    55    1
    49    22    24    1
    50    22    56    1
    51    23    27    1
    52    23    57    1
    53    24    58    1
    54    25    29   ar
    55    25    59    1
    56    26    30   ar
    57    26    60    1
    58    27    61    1
    59    27    62    1
    60    28    29   ar
    61    28    30   ar
    62    29    63    1
    63    30    64    1
    64    31    32    1
    65    32    33    2
    66    32    68    1
    67    33    34    1
    68    33    69    1
    69    34    35   ar
    70    34    36   ar
    71    35    37   ar
    72    35    70    1
    73    36    38   ar
    74    36    71    1
    75    37    39   ar
    76    37    72    1
    77    38    39   ar
    78    38    73    1
