@<TRIPOS>MOLECULE
IMPHY005169
 75 78 0 0 0
SMALL
GASTEIGER

@<TRIPOS>ATOM
      1 O           6.8671   -1.6674    0.0000 O.3     1  UNL1       -0.3093
      2 O           7.7331   -0.1674    0.0000 O.2     1  UNL1       -0.4699
      3 O           5.1350   -1.6674    0.0000 O.3     1  UNL1       -0.3404
      4 O           6.8671   -3.6674    0.0000 O.3     1  UNL1       -0.3841
      5 O           5.1350   -4.6674    0.0000 O.3     1  UNL1       -0.3864
      6 O           3.4030   -3.6674    0.0000 O.3     1  UNL1       -0.3865
      7 O           5.8511    2.2035    0.0000 O.3     1  UNL1       -0.5031
      8 O           8.3671    2.1987    0.0000 O.3     1  UNL1       -0.4646
      9 O           3.8081    0.2194    0.0000 O.2     1  UNL1       -0.2759
     10 O           2.5369   -2.1674    0.0000 O.3     1  UNL1       -0.3924
     11 O           6.8671    3.0647    0.0000 O.2     1  UNL1       -0.2452
     12 O           7.2120    4.3493    0.0000 O.3     1  UNL1       -0.5033
     13 N           3.5074    1.9250    0.0000 N.am    1  UNL1       -0.2942
     14 C           6.0010    0.8326    0.0000 C.3     1  UNL1        0.0078
     15 C           5.1350    1.3326    0.0000 C.3     1  UNL1       -0.0221
     16 C           4.4922    2.0987    0.0000 C.3     1  UNL1        0.0556
     17 C           6.0010   -0.1674    0.0000 C.3     1  UNL1        0.0467
     18 C           6.8671   -0.6674    0.0000 C.3     1  UNL1        0.2102
     19 C           4.8342    3.0384    0.0000 C.ar    1  UNL1        0.0212
     20 C           6.8671    1.3326    0.0000 C.2     1  UNL1        0.0746
     21 C           6.0010   -2.1674    0.0000 C.3     1  UNL1        0.1918
     22 C           2.8646    2.6911    0.0000 C.3     1  UNL1        0.0193
     23 C           6.0010   -3.1674    0.0000 C.3     1  UNL1        0.1342
     24 C           4.1915    3.8044    0.0000 C.ar    1  UNL1       -0.0372
     25 C           5.1350   -3.6674    0.0000 C.3     1  UNL1        0.1141
     26 C           3.2066    3.6308    0.0000 C.3     1  UNL1       -0.0114
     27 C           4.2690   -3.1674    0.0000 C.3     1  UNL1        0.1119
     28 C           4.2690   -2.1674    0.0000 C.3     1  UNL1        0.1130
     29 C           5.1350   -0.6674    0.0000 C.2     1  UNL1       -0.0816
     30 C           7.7331    0.8326    0.0000 C.2     1  UNL1        0.0981
     31 C           5.8627    3.2034    0.0000 C.ar    1  UNL1        0.1635
     32 C           3.1654    0.9853    0.0000 C.2     1  UNL1        0.2130
     33 C           4.5326    4.7886    0.0000 C.ar    1  UNL1       -0.0545
     34 C           7.3671    2.1987    0.0000 C.2     1  UNL1        0.3381
     35 C           3.4030   -1.6674    0.0000 C.3     1  UNL1        0.0730
     36 C           6.2265    4.1794    0.0000 C.ar    1  UNL1        0.1586
     37 C           5.5570    4.9774    0.0000 C.ar    1  UNL1       -0.0163
     38 C           4.2690   -0.1674    0.0000 C.2     1  UNL1       -0.1022
     39 C           2.1806    0.8117    0.0000 C.3     1  UNL1        0.0124
     40 C           8.8671    3.0647    0.0000 C.3     1  UNL1        0.0820
     41 H           6.0010    1.4526    0.0000 H       1  UNL1        0.0360
     42 H           4.5411    1.1548    0.0000 H       1  UNL1        0.0292
     43 H           5.5335    1.8076    0.0000 H       1  UNL1        0.0292
     44 H           4.2802    1.5161    0.0000 H       1  UNL1        0.0552
     45 H           6.0010   -0.7874    0.0000 H       1  UNL1        0.0410
     46 H           7.4040   -0.9774    0.0000 H       1  UNL1        0.1062
     47 H           6.0010   -1.5474    0.0000 H       1  UNL1        0.0939
     48 H           2.3277    3.0011    0.0000 H       1  UNL1        0.0468
     49 H           2.4661    2.2161    0.0000 H       1  UNL1        0.0468
     50 H           6.5380   -2.8574    0.0000 H       1  UNL1        0.0671
     51 H           5.6720   -3.9774    0.0000 H       1  UNL1        0.0648
     52 H           3.2066    4.2508    0.0000 H       1  UNL1        0.0328
     53 H           2.5961    3.7384    0.0000 H       1  UNL1        0.0328
     54 H           3.7320   -2.8574    0.0000 H       1  UNL1        0.0647
     55 H           4.2690   -1.5474    0.0000 H       1  UNL1        0.0647
     56 H           5.1350   -1.2874    0.0000 H       1  UNL1        0.0571
     57 H           8.2700    1.1426    0.0000 H       1  UNL1        0.1029
     58 H           4.1286    5.2589    0.0000 H       1  UNL1        0.0622
     59 H           3.8015   -1.1924    0.0000 H       1  UNL1        0.0584
     60 H           3.0044   -1.1924    0.0000 H       1  UNL1        0.0584
     61 H           5.7668    5.5608    0.0000 H       1  UNL1        0.0655
     62 H           7.4040   -3.3574    0.0000 H       1  UNL1        0.2101
     63 H           5.6720   -4.9774    0.0000 H       1  UNL1        0.2100
     64 H           4.2690    0.4526    0.0000 H       1  UNL1        0.0532
     65 H           3.7320   -0.4774    0.0000 H       1  UNL1        0.0532
     66 H           3.4030   -4.2874    0.0000 H       1  UNL1        0.2100
     67 H           2.0729    1.4223    0.0000 H       1  UNL1        0.0323
     68 H           1.5700    0.7040    0.0000 H       1  UNL1        0.0323
     69 H           2.2882    0.2011    0.0000 H       1  UNL1        0.0323
     70 H           6.3845    1.8873    0.0000 H       1  UNL1        0.2923
     71 H           2.0000   -1.8574    0.0000 H       1  UNL1        0.2095
     72 H           7.4263    4.9311    0.0000 H       1  UNL1        0.2923
     73 H           9.4040    2.7547    0.0000 H       1  UNL1        0.0661
     74 H           9.1771    3.6016    0.0000 H       1  UNL1        0.0661
     75 H           8.3301    3.3747    0.0000 H       1  UNL1        0.0661
@<TRIPOS>BOND
     1    18     1    1
     2    21     1    1
     3     2    18    1
     4     2    30    1
     5     3    21    1
     6     3    28    1
     7    23     4    1
     8     4    62    1
     9    25     5    1
    10     5    63    1
    11    27     6    1
    12     6    66    1
    13     7    31    1
    14     7    70    1
    15     8    34    1
    16     8    40    1
    17     9    32    2
    18    10    35    1
    19    10    71    1
    20    11    34    2
    21    12    36    1
    22    12    72    1
    23    13    16    1
    24    13    22    1
    25    13    32   am
    26    14    15    1
    27    14    17    1
    28    14    20    1
    29    14    41    1
    30    16    15    1
    31    15    42    1
    32    15    43    1
    33    16    19    1
    34    16    44    1
    35    17    18    1
    36    17    29    1
    37    17    45    1
    38    18    46    1
    39    19    24   ar
    40    19    31   ar
    41    20    30    2
    42    20    34    1
    43    21    23    1
    44    21    47    1
    45    22    26    1
    46    22    48    1
    47    22    49    1
    48    23    25    1
    49    23    50    1
    50    24    26    1
    51    24    33   ar
    52    25    27    1
    53    25    51    1
    54    26    52    1
    55    26    53    1
    56    27    28    1
    57    27    54    1
    58    28    35    1
    59    28    55    1
    60    29    38    2
    61    29    56    1
    62    30    57    1
    63    31    36   ar
    64    32    39    1
    65    33    37   ar
    66    33    58    1
    67    35    59    1
    68    35    60    1
    69    36    37   ar
    70    37    61    1
    71    38    64    1
    72    38    65    1
    73    39    67    1
    74    39    68    1
    75    39    69    1
    76    40    73    1
    77    40    74    1
    78    40    75    1
