@<TRIPOS>MOLECULE
IMPHY012412
 39 41 0 0 0
SMALL
GASTEIGER

@<TRIPOS>ATOM
      1 O           3.7230   -0.6912    0.0000 O.3     1  UNL1       -0.4570
      2 O           5.4378   -2.5864    0.0000 O.3     1  UNL1       -0.3884
      3 O           4.5447    2.4742    0.0000 O.3     1  UNL1       -0.3907
      4 O           2.0000   -0.2590    0.0000 O.2     1  UNL1       -0.2453
      5 C           5.4786   -0.6174    0.0000 C.3     1  UNL1        0.0318
      6 C           6.3796   -0.1835    0.0000 C.3     1  UNL1       -0.0112
      7 C           5.6146   -1.6022    0.0000 C.3     1  UNL1        0.0701
      8 C           4.5777   -0.1835    0.0000 C.3     1  UNL1        0.1187
      9 C           7.0647   -0.9038    0.0000 C.3     1  UNL1       -0.0435
     10 C           6.5929   -1.7788    0.0000 C.3     1  UNL1       -0.0233
     11 C           4.3551    0.7914    0.0000 C.3     1  UNL1        0.0540
     12 C           6.6021    0.7914    0.0000 C.2     1  UNL1       -0.0706
     13 C           4.9786    1.5732    0.0000 C.3     1  UNL1        0.0693
     14 C           5.9786    1.5732    0.0000 C.3     1  UNL1       -0.0049
     15 C           4.6239   -1.7381    0.0000 C.3     1  UNL1       -0.0357
     16 C           3.3648    0.8779    0.0000 C.2     1  UNL1        0.0386
     17 C           2.9749   -0.0365    0.0000 C.2     1  UNL1        0.3354
     18 C           7.5770    1.0139    0.0000 C.2     1  UNL1       -0.0991
     19 C           2.8504    1.7355    0.0000 C.2     1  UNL1       -0.0882
     20 H           4.7916   -1.1179    0.0000 H       1  UNL1        0.0370
     21 H           7.1993    0.0415    0.0000 H       1  UNL1        0.0350
     22 H           4.6147   -1.0327    0.0000 H       1  UNL1        0.0745
     23 H           7.5765   -1.2538    0.0000 H       1  UNL1        0.0272
     24 H           7.4666   -0.4317    0.0000 H       1  UNL1        0.0272
     25 H           6.4192   -2.3740    0.0000 H       1  UNL1        0.0293
     26 H           7.1665   -2.0141    0.0000 H       1  UNL1        0.0293
     27 H           5.1838    0.6022    0.0000 H       1  UNL1        0.0412
     28 H           4.3625    1.6426    0.0000 H       1  UNL1        0.0604
     29 H           6.5372    1.8422    0.0000 H       1  UNL1        0.0335
     30 H           5.8407    2.1777    0.0000 H       1  UNL1        0.0335
     31 H           4.5396   -1.1239    0.0000 H       1  UNL1        0.0257
     32 H           4.0097   -1.8224    0.0000 H       1  UNL1        0.0257
     33 H           4.7082   -2.3523    0.0000 H       1  UNL1        0.0257
     34 H           5.9114   -2.9865    0.0000 H       1  UNL1        0.2102
     35 H           7.9988    0.5594    0.0000 H       1  UNL1        0.0534
     36 H           7.7598    1.6064    0.0000 H       1  UNL1        0.0534
     37 H           4.8940    2.9865    0.0000 H       1  UNL1        0.2098
     38 H           3.1514    2.2775    0.0000 H       1  UNL1        0.0540
     39 H           2.2305    1.7251    0.0000 H       1  UNL1        0.0540
@<TRIPOS>BOND
     1     1     8    1
     2     1    17    1
     3     7     2    1
     4     2    34    1
     5    13     3    1
     6     3    37    1
     7     4    17    2
     8     5     6    1
     9     5     7    1
    10     5     8    1
    11     5    20    1
    12     6     9    1
    13     6    12    1
    14     6    21    1
    15     7    10    1
    16     7    15    1
    17     8    11    1
    18     8    22    1
    19     9    10    1
    20     9    23    1
    21     9    24    1
    22    10    25    1
    23    10    26    1
    24    11    13    1
    25    11    16    1
    26    11    27    1
    27    12    14    1
    28    12    18    2
    29    13    14    1
    30    13    28    1
    31    14    29    1
    32    14    30    1
    33    15    31    1
    34    15    32    1
    35    15    33    1
    36    16    17    1
    37    16    19    2
    38    18    35    1
    39    18    36    1
    40    19    38    1
    41    19    39    1
