@<TRIPOS>MOLECULE
IMPHY001917
 70 72 0 0 0
SMALL
GASTEIGER

@<TRIPOS>ATOM
      1 O           8.8042    0.4391    0.0000 O.3     1  UNL1       -0.4641
      2 O           7.2146   -1.8247    0.0000 O.3     1  UNL1       -0.4641
      3 O           9.6702    1.9391    0.0000 O.2     1  UNL1       -0.2504
      4 O           5.5416   -2.2729    0.0000 O.2     1  UNL1       -0.2504
      5 N          11.5068    1.9337    0.0000 N.pl3   1  UNL1       -0.2319
      6 N           4.3100   -1.1948    0.0000 N.pl3   1  UNL1       -0.2319
      7 N          12.9849    1.2756    0.0000 N.2     1  UNL1       -0.1141
      8 N           3.5380    0.2272    0.0000 N.2     1  UNL1       -0.1141
      9 N          12.8916    3.0551    0.0000 N.pl3   1  UNL1       -0.2518
     10 N           2.5286   -1.2414    0.0000 N.pl3   1  UNL1       -0.2518
     11 C          10.5362    0.4391    0.0000 C.3     1  UNL1        0.0910
     12 C           5.9898   -0.5999    0.0000 C.3     1  UNL1        0.0910
     13 C          11.4022    0.9391    0.0000 C.3     1  UNL1        0.1157
     14 C           4.9984   -0.4694    0.0000 C.3     1  UNL1        0.1157
     15 C          10.5362   -0.5609    0.0000 C.3     1  UNL1       -0.0369
     16 C           6.4898    0.2661    0.0000 C.3     1  UNL1       -0.0369
     17 C          10.1805   -1.5658    0.0000 C.3     1  UNL1       -0.0518
     18 C           6.2310    1.2320    0.0000 C.3     1  UNL1       -0.0518
     19 C           9.2146   -1.8247    0.0000 C.3     1  UNL1       -0.0474
     20 C           6.9381    1.9391    0.0000 C.3     1  UNL1       -0.0474
     21 C           8.7146   -2.6907    0.0000 C.3     1  UNL1       -0.0095
     22 C           7.9381    1.9391    0.0000 C.3     1  UNL1       -0.0095
     23 C          12.3158    0.5324    0.0000 C.3     1  UNL1        0.1365
     24 C           4.5212    0.4094    0.0000 C.3     1  UNL1        0.1365
     25 C           9.6702    0.9391    0.0000 C.2     1  UNL1        0.3135
     26 C           6.2487   -1.5658    0.0000 C.2     1  UNL1        0.3135
     27 C           7.9381    0.9391    0.0000 C.3     1  UNL1        0.0950
     28 C           7.7146   -2.6907    0.0000 C.3     1  UNL1        0.0950
     29 C           9.2146   -3.5567    0.0000 C.3     1  UNL1       -0.0593
     30 C           8.6452    2.6463    0.0000 C.3     1  UNL1       -0.0593
     31 C          12.4849    2.1416    0.0000 C.cat   1  UNL1        0.3626
     32 C           3.4074   -0.7643    0.0000 C.cat   1  UNL1        0.3626
     33 H          10.5362    1.2891    0.0000 H       1  UNL1        0.0447
     34 H           5.4294   -1.2390    0.0000 H       1  UNL1        0.0447
     35 H          11.4467    0.0903    0.0000 H       1  UNL1        0.0710
     36 H           5.4798    0.2311    0.0000 H       1  UNL1        0.0710
     37 H          10.9897   -0.9836    0.0000 H       1  UNL1        0.0274
     38 H           9.9252   -0.4559    0.0000 H       1  UNL1        0.0274
     39 H           6.9282   -0.1723    0.0000 H       1  UNL1        0.0274
     40 H           7.0268    0.5761    0.0000 H       1  UNL1        0.0274
     41 H          10.2184   -2.1847    0.0000 H       1  UNL1        0.0266
     42 H          10.7945   -1.6521    0.0000 H       1  UNL1        0.0266
     43 H           5.8754    1.7399    0.0000 H       1  UNL1        0.0266
     44 H           5.6691    0.9700    0.0000 H       1  UNL1        0.0266
     45 H           9.2146   -1.2047    0.0000 H       1  UNL1        0.0269
     46 H           7.0986    2.5380    0.0000 H       1  UNL1        0.0269
     47 H           8.6157   -1.6642    0.0000 H       1  UNL1        0.0269
     48 H           6.4012    2.2491    0.0000 H       1  UNL1        0.0269
     49 H           9.3346   -2.6907    0.0000 H       1  UNL1        0.0331
     50 H           8.5109    1.7019    0.0000 H       1  UNL1        0.0331
     51 H          12.0058   -0.0045    0.0000 H       1  UNL1        0.0726
     52 H          12.8174    0.1680    0.0000 H       1  UNL1        0.0726
     53 H           5.0940    0.6467    0.0000 H       1  UNL1        0.0726
     54 H           4.3452    1.0039    0.0000 H       1  UNL1        0.0726
     55 H           7.3276    1.0468    0.0000 H       1  UNL1        0.0700
     56 H           7.7261    0.3565    0.0000 H       1  UNL1        0.0700
     57 H           7.1320   -2.9027    0.0000 H       1  UNL1        0.0700
     58 H           7.8222   -3.3013    0.0000 H       1  UNL1        0.0700
     59 H          11.0460    2.3485    0.0000 H       1  UNL1        0.2448
     60 H           4.4230   -1.8044    0.0000 H       1  UNL1        0.2448
     61 H           8.6776   -3.8667    0.0000 H       1  UNL1        0.0233
     62 H           9.0836    2.2078    0.0000 H       1  UNL1        0.0233
     63 H           9.5246   -4.0936    0.0000 H       1  UNL1        0.0233
     64 H           9.0836    3.0847    0.0000 H       1  UNL1        0.0233
     65 H           9.7515   -3.2467    0.0000 H       1  UNL1        0.0233
     66 H           8.2068    3.0847    0.0000 H       1  UNL1        0.0233
     67 H          13.5082    3.1199    0.0000 H       1  UNL1        0.2412
     68 H          12.5272    3.5567    0.0000 H       1  UNL1        0.2412
     69 H           2.0000   -0.9175    0.0000 H       1  UNL1        0.2412
     70 H           2.5124   -1.8612    0.0000 H       1  UNL1        0.2412
@<TRIPOS>BOND
     1     1    25    1
     2     1    27    1
     3     2    26    1
     4     2    28    1
     5     3    25    2
     6     4    26    2
     7     5    13    1
     8     5    31    1
     9     5    59    1
    10     6    14    1
    11     6    32    1
    12     6    60    1
    13     7    23    1
    14     7    31    2
    15     8    24    1
    16     8    32    2
    17     9    31    1
    18     9    67    1
    19     9    68    1
    20    10    32    1
    21    10    69    1
    22    10    70    1
    23    11    13    1
    24    11    15    1
    25    11    25    1
    26    11    33    1
    27    12    14    1
    28    12    16    1
    29    12    26    1
    30    12    34    1
    31    13    23    1
    32    13    35    1
    33    14    24    1
    34    14    36    1
    35    15    17    1
    36    15    37    1
    37    15    38    1
    38    16    18    1
    39    16    39    1
    40    16    40    1
    41    17    19    1
    42    17    41    1
    43    17    42    1
    44    18    20    1
    45    18    43    1
    46    18    44    1
    47    19    21    1
    48    19    45    1
    49    19    47    1
    50    20    22    1
    51    20    46    1
    52    20    48    1
    53    21    28    1
    54    21    29    1
    55    21    49    1
    56    22    27    1
    57    22    30    1
    58    22    50    1
    59    23    51    1
    60    23    52    1
    61    24    53    1
    62    24    54    1
    63    27    55    1
    64    27    56    1
    65    28    57    1
    66    28    58    1
    67    29    61    1
    68    29    63    1
    69    29    65    1
    70    30    62    1
    71    30    64    1
    72    30    66    1
