@<TRIPOS>MOLECULE
IMPHY010738
 19 21 0 0 0
SMALL
GASTEIGER

@<TRIPOS>ATOM
      1 C           9.1989   -4.1395    0.0000 C.3     1  UNL1        0.0840
      2 C           2.2997   -2.8149    0.0000 C.ar    1  UNL1        0.0024
      3 C           1.1499   -3.4772    0.0000 C.ar    1  UNL1        0.0419
      4 C           4.6086   -2.8149    0.0000 C.3     1  UNL1        0.0588
      5 C           2.2997   -5.4733    0.0000 C.ar    1  UNL1        0.0791
      6 C           7.0464   -1.4902    0.0000 C.2     1  UNL1        0.0833
      7 C           5.7585   -4.8110    0.0000 C.2     1  UNL1        0.1754
      8 C           3.4588   -3.4772    0.0000 C.ar    1  UNL1        0.0170
      9 C           5.7585   -3.4772    0.0000 C.2     1  UNL1        0.0218
     10 C           1.1499   -4.8110    0.0000 C.ar    1  UNL1        0.1988
     11 C           6.9084   -2.8149    0.0000 C.2     1  UNL1        0.0490
     12 C           3.4588   -4.8110    0.0000 C.ar    1  UNL1        0.1449
     13 C           8.3526   -1.2143    0.0000 C.2     1  UNL1        0.3432
     14 C           8.1226   -3.3576    0.0000 C.3     1  UNL1        0.2804
     15 O           0.0000   -5.4733    0.0000 O.3     1  UNL1       -0.2865
     16 O           8.8861    0.0000    0.0000 O.2     1  UNL1       -0.2448
     17 O           7.4603   -4.5075    0.0000 O.3     1  UNL1       -0.1764
     18 O           4.6086   -5.4733    0.0000 O.3     1  UNL1       -0.4509
     19 O           9.0149   -2.3641    0.0000 O.3     1  UNL1       -0.4214
@<TRIPOS>BOND
     1     1    14    1
     2     2     3   ar
     3     2     8   ar
     4     3    10   ar
     5     4     8    1
     6     4     9    1
     7     5    10   ar
     8     5    12   ar
     9     6    11    2
    10     6    13    1
    11     7     9    2
    12     7    18    1
    13     8    12   ar
    14     9    11    1
    15    10    15    1
    16    11    14    1
    17    12    18    1
    18    13    16    2
    19    13    19    1
    20    14    17    1
    21    14    19    1
