@<TRIPOS>MOLECULE
IMPHY007480
 82 86 0 0 0
SMALL
GASTEIGER

@<TRIPOS>ATOM
      1 C           6.5251   -0.6372    0.0000 C.3     1  UNL1       -0.0233
      2 C           5.6591   -1.1372    0.0000 C.3     1  UNL1       -0.0231
      3 C           6.5251    0.3628    0.0000 C.3     1  UNL1       -0.0315
      4 C           4.7931   -0.6372    0.0000 C.3     1  UNL1       -0.0294
      5 C           7.4191    0.8974    0.0000 C.3     1  UNL1       -0.0292
      6 C           3.8831   -1.1441    0.0000 C.3     1  UNL1       -0.0254
      7 C           8.3252    0.3836    0.0000 C.3     1  UNL1       -0.0287
      8 C           3.8751   -2.1857    0.0000 C.3     1  UNL1       -0.0302
      9 C           7.4191   -1.1719    0.0000 C.3     1  UNL1       -0.0464
     10 C           5.6591    0.8628    0.0000 C.3     1  UNL1       -0.0491
     11 C           4.7931    0.3628    0.0000 C.3     1  UNL1       -0.0489
     12 C           5.6752   -2.1788    0.0000 C.3     1  UNL1       -0.0466
     13 C           7.6292    1.9113    0.0000 C.3     1  UNL1       -0.0351
     14 C           8.3252   -0.6581    0.0000 C.3     1  UNL1       -0.0468
     15 C           4.7771   -2.7065    0.0000 C.3     1  UNL1       -0.0487
     16 C           9.0875    1.0843    0.0000 C.3     1  UNL1       -0.0471
     17 C           2.9396   -2.7354    0.0000 C.3     1  UNL1       -0.0315
     18 C           6.8672   -1.5769    0.0000 C.3     1  UNL1       -0.0588
     19 C           2.9562   -0.5800    0.0000 C.3     1  UNL1       -0.0471
     20 C           6.3019   -1.9033    0.0000 C.3     1  UNL1       -0.0588
     21 C           8.6582    2.0266    0.0000 C.3     1  UNL1       -0.0492
     22 C           3.8908   -0.1441    0.0000 C.3     1  UNL1       -0.0590
     23 C           9.1950   -0.1097    0.0000 C.3     1  UNL1       -0.0593
     24 C           2.0000   -2.1929    0.0000 C.3     1  UNL1       -0.0476
     25 C           2.0084   -1.1080    0.0000 C.3     1  UNL1       -0.0521
     26 C           6.9556    2.6505    0.0000 C.3     1  UNL1       -0.0436
     27 C           2.4430   -3.6034    0.0000 C.3     1  UNL1       -0.0595
     28 C           3.4430   -3.5995    0.0000 C.3     1  UNL1       -0.0595
     29 C           7.2590    3.6034    0.0000 C.3     1  UNL1       -0.0624
     30 C           5.9787    2.4367    0.0000 C.3     1  UNL1       -0.0624
     31 H           6.5186    1.2127    0.0000 H       1  UNL1        0.0309
     32 H           5.5292   -0.2122    0.0000 H       1  UNL1        0.0312
     33 H           6.7263    1.3900    0.0000 H       1  UNL1        0.0312
     34 H           3.8783   -3.0357    0.0000 H       1  UNL1        0.0311
     35 H           7.0145   -1.6417    0.0000 H       1  UNL1        0.0271
     36 H           7.8127   -1.6509    0.0000 H       1  UNL1        0.0271
     37 H           6.0576    1.3377    0.0000 H       1  UNL1        0.0268
     38 H           5.2606    1.3377    0.0000 H       1  UNL1        0.0268
     39 H           4.5810    0.9454    0.0000 H       1  UNL1        0.0268
     40 H           4.1825    0.2551    0.0000 H       1  UNL1        0.0268
     41 H           5.8932   -2.7592    0.0000 H       1  UNL1        0.0271
     42 H           6.2843   -2.0632    0.0000 H       1  UNL1        0.0271
     43 H           7.8477    2.4916    0.0000 H       1  UNL1        0.0306
     44 H           8.5342   -1.2418    0.0000 H       1  UNL1        0.0271
     45 H           8.9360   -0.5520    0.0000 H       1  UNL1        0.0271
     46 H           4.3798   -3.1825    0.0000 H       1  UNL1        0.0268
     47 H           5.1781   -3.1794    0.0000 H       1  UNL1        0.0268
     48 H           9.4568    0.5863    0.0000 H       1  UNL1        0.0271
     49 H           9.6215    1.3992    0.0000 H       1  UNL1        0.0271
     50 H           6.2847   -1.7890    0.0000 H       1  UNL1        0.0235
     51 H           7.0794   -2.1595    0.0000 H       1  UNL1        0.0235
     52 H           7.4498   -1.3648    0.0000 H       1  UNL1        0.0235
     53 H           3.3645   -0.1134    0.0000 H       1  UNL1        0.0271
     54 H           2.5663   -0.0980    0.0000 H       1  UNL1        0.0271
     55 H           5.8270   -2.3018    0.0000 H       1  UNL1        0.0235
     56 H           6.7004   -2.3782    0.0000 H       1  UNL1        0.0235
     57 H           6.7768   -1.5048    0.0000 H       1  UNL1        0.0235
     58 H           9.2463    2.2229    0.0000 H       1  UNL1        0.0268
     59 H           8.5248    2.6321    0.0000 H       1  UNL1        0.0268
     60 H           4.5108   -0.1489    0.0000 H       1  UNL1        0.0235
     61 H           3.8956    0.4759    0.0000 H       1  UNL1        0.0235
     62 H           3.2708   -0.1393    0.0000 H       1  UNL1        0.0235
     63 H           8.8892   -0.6490    0.0000 H       1  UNL1        0.0235
     64 H           9.7343   -0.4156    0.0000 H       1  UNL1        0.0235
     65 H           9.5008    0.4296    0.0000 H       1  UNL1        0.0235
     66 H           1.3900   -2.0821    0.0000 H       1  UNL1        0.0271
     67 H           1.7864   -2.7750    0.0000 H       1  UNL1        0.0271
     68 H           1.8038   -0.5227    0.0000 H       1  UNL1        0.0266
     69 H           1.3967   -1.2093    0.0000 H       1  UNL1        0.0266
     70 H           6.5380    3.1087    0.0000 H       1  UNL1        0.0298
     71 H           2.9072   -3.9116    0.0000 H       1  UNL1        0.0235
     72 H           1.9048   -3.2954    0.0000 H       1  UNL1        0.0235
     73 H           3.7550   -4.1352    0.0000 H       1  UNL1        0.0235
     74 H           2.1350   -4.1415    0.0000 H       1  UNL1        0.0235
     75 H           2.9811   -3.9113    0.0000 H       1  UNL1        0.0235
     76 H           3.9787   -3.2874    0.0000 H       1  UNL1        0.0235
     77 H           5.8462    3.0424    0.0000 H       1  UNL1        0.0232
     78 H           7.8497    3.4153    0.0000 H       1  UNL1        0.0232
     79 H           7.4470    4.1941    0.0000 H       1  UNL1        0.0232
     80 H           5.3731    2.3042    0.0000 H       1  UNL1        0.0232
     81 H           6.1113    1.8310    0.0000 H       1  UNL1        0.0232
     82 H           6.6682    3.7914    0.0000 H       1  UNL1        0.0232
@<TRIPOS>BOND
     1     1     2    1
     2     1     3    1
     3     1     9    1
     4     1    18    1
     5     2     4    1
     6     2    12    1
     7     2    20    1
     8     3     5    1
     9     3    10    1
    10     3    31    1
    11     4     6    1
    12     4    11    1
    13     4    32    1
    14     5     7    1
    15     5    13    1
    16     5    33    1
    17     6     8    1
    18     6    19    1
    19     6    22    1
    20     7    14    1
    21     7    16    1
    22     7    23    1
    23     8    15    1
    24     8    17    1
    25     8    34    1
    26     9    14    1
    27     9    35    1
    28     9    36    1
    29    10    11    1
    30    10    37    1
    31    10    38    1
    32    11    39    1
    33    11    40    1
    34    12    15    1
    35    12    41    1
    36    12    42    1
    37    13    21    1
    38    13    26    1
    39    13    43    1
    40    14    44    1
    41    14    45    1
    42    15    46    1
    43    15    47    1
    44    16    21    1
    45    16    48    1
    46    16    49    1
    47    17    24    1
    48    17    27    1
    49    17    28    1
    50    18    50    1
    51    18    51    1
    52    18    52    1
    53    19    25    1
    54    19    53    1
    55    19    54    1
    56    20    55    1
    57    20    56    1
    58    20    57    1
    59    21    58    1
    60    21    59    1
    61    22    60    1
    62    22    61    1
    63    22    62    1
    64    23    63    1
    65    23    64    1
    66    23    65    1
    67    24    25    1
    68    24    66    1
    69    24    67    1
    70    25    68    1
    71    25    69    1
    72    26    29    1
    73    26    30    1
    74    26    70    1
    75    27    72    1
    76    27    74    1
    77    27    75    1
    78    28    71    1
    79    28    73    1
    80    28    76    1
    81    29    78    1
    82    29    79    1
    83    29    82    1
    84    30    77    1
    85    30    80    1
    86    30    81    1
