@<TRIPOS>MOLECULE
IMPHY015607
 40 41 0 0 0
SMALL
GASTEIGER

@<TRIPOS>ATOM
      1 O           4.4697   -0.3199    0.0000 O.3     1  UNL1       -0.3629
      2 C           3.6037   -0.8199    0.0000 C.3     1  UNL1        0.0743
      3 C           4.5815   -2.6344    0.0000 C.3     1  UNL1        0.0062
      4 C           4.8403   -1.6685    0.0000 C.3     1  UNL1        0.0855
      5 C           3.2088   -3.2264    0.0000 C.3     1  UNL1       -0.0412
      6 C           2.8668   -2.2868    0.0000 C.3     1  UNL1       -0.0197
      7 C           2.8966   -0.1128    0.0000 C.3     1  UNL1       -0.0200
      8 C           5.9804   -3.1432    0.0000 C.2     1  UNL1       -0.0795
      9 C           6.2392   -2.1773    0.0000 C.2     1  UNL1       -0.0564
     10 C           2.6378   -1.0787    0.0000 C.3     1  UNL1       -0.0352
     11 C           5.0991   -0.7026    0.0000 C.3     1  UNL1       -0.0322
     12 C           3.1554    0.8532    0.0000 C.3     1  UNL1       -0.0319
     13 C           2.4483    1.5603    0.0000 C.2     1  UNL1       -0.0852
     14 C           2.7071    2.5262    0.0000 C.2     1  UNL1       -0.0796
     15 C           2.0000    3.2333    0.0000 C.3     1  UNL1       -0.0440
     16 C           3.6730    2.7850    0.0000 C.3     1  UNL1       -0.0440
     17 H           4.3615   -3.4555    0.0000 H       1  UNL1        0.0371
     18 H           2.6304   -3.4498    0.0000 H       1  UNL1        0.0273
     19 H           3.4432   -3.8004    0.0000 H       1  UNL1        0.0273
     20 H           2.6725   -1.6980    0.0000 H       1  UNL1        0.0296
     21 H           2.2810   -2.4900    0.0000 H       1  UNL1        0.0296
     22 H           2.3347    0.1493    0.0000 H       1  UNL1        0.0296
     23 H           2.5410   -0.6206    0.0000 H       1  UNL1        0.0296
     24 H           6.2668   -3.6932    0.0000 H       1  UNL1        0.0574
     25 H           6.7892   -1.8910    0.0000 H       1  UNL1        0.0597
     26 H           2.4773   -0.4798    0.0000 H       1  UNL1        0.0257
     27 H           2.0389   -1.2392    0.0000 H       1  UNL1        0.0257
     28 H           2.7982   -1.6776    0.0000 H       1  UNL1        0.0257
     29 H           5.6980   -0.8630    0.0000 H       1  UNL1        0.0260
     30 H           5.2596   -0.1037    0.0000 H       1  UNL1        0.0260
     31 H           4.5002   -0.5421    0.0000 H       1  UNL1        0.0260
     32 H           3.7173    0.5911    0.0000 H       1  UNL1        0.0308
     33 H           3.5110    1.3610    0.0000 H       1  UNL1        0.0308
     34 H           1.8494    1.3998    0.0000 H       1  UNL1        0.0571
     35 H           2.4384    3.6717    0.0000 H       1  UNL1        0.0274
     36 H           1.5616    3.6717    0.0000 H       1  UNL1        0.0274
     37 H           1.5616    2.7949    0.0000 H       1  UNL1        0.0274
     38 H           3.8335    2.1861    0.0000 H       1  UNL1        0.0274
     39 H           4.2719    2.9455    0.0000 H       1  UNL1        0.0274
     40 H           3.5126    3.3839    0.0000 H       1  UNL1        0.0274
@<TRIPOS>BOND
     1     1     2    1
     2     1     4    1
     3     2     3    1
     4     2     7    1
     5     2    10    1
     6     3     5    1
     7     3     8    1
     8     3    17    1
     9     4     6    1
    10     4     9    1
    11     4    11    1
    12     5     6    1
    13     5    18    1
    14     5    19    1
    15     6    20    1
    16     6    21    1
    17     7    12    1
    18     7    22    1
    19     7    23    1
    20     8     9    2
    21     8    24    1
    22     9    25    1
    23    10    26    1
    24    10    27    1
    25    10    28    1
    26    11    29    1
    27    11    30    1
    28    11    31    1
    29    12    13    1
    30    12    32    1
    31    12    33    1
    32    13    14    2
    33    13    34    1
    34    14    15    1
    35    14    16    1
    36    15    35    1
    37    15    36    1
    38    15    37    1
    39    16    38    1
    40    16    39    1
    41    16    40    1
