@<TRIPOS>MOLECULE
IMPHY005310
 43 45 0 0 0
SMALL
GASTEIGER

@<TRIPOS>ATOM
      1 O           2.0000   -1.8556    0.0000 O.2     1  UNL1       -0.2968
      2 O           7.2622   -1.8314    0.0000 O.2     1  UNL1       -0.2920
      3 O           8.1821    1.7137    0.0000 O.3     1  UNL1       -0.5065
      4 C           4.6641   -0.3314    0.0000 C.3     1  UNL1       -0.0019
      5 C           4.6641   -1.3314    0.0000 C.3     1  UNL1       -0.0128
      6 C           3.7702   -1.8661    0.0000 C.3     1  UNL1        0.0274
      7 C           3.7702    0.2032    0.0000 C.3     1  UNL1       -0.0366
      8 C           5.5301   -1.8314    0.0000 C.3     1  UNL1        0.0150
      9 C           5.5301    0.1686    0.0000 C.ar    1  UNL1       -0.0302
     10 C           2.8641   -0.3106    0.0000 C.3     1  UNL1        0.0072
     11 C           2.8641   -1.3522    0.0000 C.2     1  UNL1        0.1393
     12 C           4.6641    0.6686    0.0000 C.3     1  UNL1       -0.0552
     13 C           3.2802   -2.7378    0.0000 C.3     1  UNL1       -0.0528
     14 C           4.2801   -2.7263    0.0000 C.3     1  UNL1       -0.0528
     15 C           6.3961   -0.3314    0.0000 C.ar    1  UNL1        0.0246
     16 C           6.3961   -1.3314    0.0000 C.2     1  UNL1        0.1639
     17 C           5.5141    1.2101    0.0000 C.ar    1  UNL1       -0.0510
     18 C           7.3062    0.1754    0.0000 C.ar    1  UNL1       -0.0092
     19 C           6.4121    1.7378    0.0000 C.ar    1  UNL1       -0.0087
     20 C           7.3142    1.2170    0.0000 C.ar    1  UNL1        0.1204
     21 C           6.4082    2.7378    0.0000 C.3     1  UNL1       -0.0362
     22 H           4.6706   -2.1814    0.0000 H       1  UNL1        0.0323
     23 H           4.1748    0.6730    0.0000 H       1  UNL1        0.0278
     24 H           3.3765    0.6823    0.0000 H       1  UNL1        0.0278
     25 H           5.1316   -2.3064    0.0000 H       1  UNL1        0.0348
     26 H           5.9286   -2.3064    0.0000 H       1  UNL1        0.0348
     27 H           2.6550    0.2731    0.0000 H       1  UNL1        0.0342
     28 H           2.2532   -0.4167    0.0000 H       1  UNL1        0.0342
     29 H           5.2841    0.6686    0.0000 H       1  UNL1        0.0238
     30 H           4.6641    1.2886    0.0000 H       1  UNL1        0.0238
     31 H           4.0441    0.6686    0.0000 H       1  UNL1        0.0238
     32 H           2.7397   -2.4341    0.0000 H       1  UNL1        0.0239
     33 H           2.9764   -3.2783    0.0000 H       1  UNL1        0.0239
     34 H           3.8207   -3.0416    0.0000 H       1  UNL1        0.0239
     35 H           3.7468   -3.0425    0.0000 H       1  UNL1        0.0239
     36 H           4.5963   -3.2596    0.0000 H       1  UNL1        0.0239
     37 H           4.8134   -2.4101    0.0000 H       1  UNL1        0.0239
     38 H           4.9736    1.5139    0.0000 H       1  UNL1        0.0624
     39 H           7.8395   -0.1408    0.0000 H       1  UNL1        0.0661
     40 H           7.0282    2.7402    0.0000 H       1  UNL1        0.0279
     41 H           6.4059    3.3578    0.0000 H       1  UNL1        0.0279
     42 H           5.7882    2.7354    0.0000 H       1  UNL1        0.0279
     43 H           8.7179    1.4016    0.0000 H       1  UNL1        0.2921
@<TRIPOS>BOND
     1     1    11    2
     2     2    16    2
     3     3    20    1
     4     3    43    1
     5     4     5    1
     6     4     7    1
     7     4     9    1
     8     4    12    1
     9     5     6    1
    10     5     8    1
    11     5    22    1
    12     6    11    1
    13     6    13    1
    14     6    14    1
    15     7    10    1
    16     7    23    1
    17     7    24    1
    18     8    16    1
    19     8    25    1
    20     8    26    1
    21     9    15   ar
    22     9    17   ar
    23    10    11    1
    24    10    27    1
    25    10    28    1
    26    12    29    1
    27    12    30    1
    28    12    31    1
    29    13    32    1
    30    13    33    1
    31    13    34    1
    32    14    35    1
    33    14    36    1
    34    14    37    1
    35    15    16    1
    36    15    18   ar
    37    17    19   ar
    38    17    38    1
    39    18    20   ar
    40    18    39    1
    41    19    20   ar
    42    19    21    1
    43    21    40    1
    44    21    41    1
    45    21    42    1
