@<TRIPOS>MOLECULE
IMPHY014142
 42 44 0 0 0
SMALL
GASTEIGER

@<TRIPOS>ATOM
      1 O           7.7004   -0.3772    0.0000 O.3     1  UNL1       -0.4612
      2 O           8.0605    1.3170    0.0000 O.2     1  UNL1       -0.2456
      3 O           2.1916    2.5645    0.0000 O.3     1  UNL1       -0.5068
      4 N           9.9386   -2.8452    0.0000 N.3     1  UNL1       -0.2990
      5 C           9.9386   -1.8452    0.0000 C.3     1  UNL1        0.0164
      6 C           8.9875   -1.5361    0.0000 C.3     1  UNL1        0.0101
      7 C          10.8848   -1.5404    0.0000 C.3     1  UNL1       -0.0358
      8 C           8.3997   -2.3452    0.0000 C.3     1  UNL1       -0.0328
      9 C           8.9875   -3.1542    0.0000 C.3     1  UNL1       -0.0004
     10 C          10.8848   -3.1499    0.0000 C.3     1  UNL1       -0.0008
     11 C          11.4684   -2.3452    0.0000 C.3     1  UNL1       -0.0388
     12 C           8.6785   -0.5851    0.0000 C.3     1  UNL1        0.0970
     13 C           7.3914    0.5739    0.0000 C.2     1  UNL1        0.3320
     14 C           6.4132    0.7818    0.0000 C.2     1  UNL1        0.0231
     15 C           6.1042    1.7329    0.0000 C.2     1  UNL1       -0.0478
     16 C           5.1260    1.9408    0.0000 C.ar    1  UNL1       -0.0246
     17 C           4.4569    1.1976    0.0000 C.ar    1  UNL1       -0.0511
     18 C           4.8170    2.8918    0.0000 C.ar    1  UNL1       -0.0511
     19 C           3.4788    1.4055    0.0000 C.ar    1  UNL1       -0.0196
     20 C           3.8389    3.0997    0.0000 C.ar    1  UNL1       -0.0196
     21 C           3.1697    2.3566    0.0000 C.ar    1  UNL1        0.1169
     22 H           9.9397   -0.9951    0.0000 H       1  UNL1        0.0466
     23 H           8.3752   -1.4391    0.0000 H       1  UNL1        0.0349
     24 H          11.4222   -1.2312    0.0000 H       1  UNL1        0.0281
     25 H          10.6338   -0.9735    0.0000 H       1  UNL1        0.0281
     26 H           7.9390   -1.9303    0.0000 H       1  UNL1        0.0282
     27 H           7.9390   -2.7600    0.0000 H       1  UNL1        0.0282
     28 H           8.4506   -3.4642    0.0000 H       1  UNL1        0.0427
     29 H           9.2397   -3.7206    0.0000 H       1  UNL1        0.0427
     30 H          10.6338   -3.7168    0.0000 H       1  UNL1        0.0427
     31 H          11.4222   -3.4591    0.0000 H       1  UNL1        0.0427
     32 H          11.9293   -2.7599    0.0000 H       1  UNL1        0.0278
     33 H          11.9293   -1.9304    0.0000 H       1  UNL1        0.0278
     34 H           9.2925   -0.4988    0.0000 H       1  UNL1        0.0701
     35 H           8.7002    0.0345    0.0000 H       1  UNL1        0.0701
     36 H           5.9983    0.3211    0.0000 H       1  UNL1        0.0689
     37 H           6.5190    2.1936    0.0000 H       1  UNL1        0.0626
     38 H           4.6485    0.6080    0.0000 H       1  UNL1        0.0625
     39 H           5.2319    3.3526    0.0000 H       1  UNL1        0.0625
     40 H           3.0639    0.9448    0.0000 H       1  UNL1        0.0654
     41 H           3.6473    3.6894    0.0000 H       1  UNL1        0.0654
     42 H           2.0000    3.1542    0.0000 H       1  UNL1        0.2921
@<TRIPOS>BOND
     1     1    12    1
     2     1    13    1
     3     2    13    2
     4     3    21    1
     5     3    42    1
     6     4     5    1
     7     4     9    1
     8     4    10    1
     9     5     6    1
    10     5     7    1
    11     5    22    1
    12     6     8    1
    13     6    12    1
    14     6    23    1
    15     7    11    1
    16     7    24    1
    17     7    25    1
    18     8     9    1
    19     8    26    1
    20     8    27    1
    21     9    28    1
    22     9    29    1
    23    10    11    1
    24    10    30    1
    25    10    31    1
    26    11    32    1
    27    11    33    1
    28    12    34    1
    29    12    35    1
    30    13    14    1
    31    14    15    2
    32    14    36    1
    33    15    16    1
    34    15    37    1
    35    16    17   ar
    36    16    18   ar
    37    17    19   ar
    38    17    38    1
    39    18    20   ar
    40    18    39    1
    41    19    21   ar
    42    19    40    1
    43    20    21   ar
    44    20    41    1
