@<TRIPOS>MOLECULE
IMPHY012678
 61 63 0 0 0
SMALL
GASTEIGER

@<TRIPOS>ATOM
      1 O           6.3981   -2.7725    0.0000 O.3     1  UNL1       -0.3750
      2 O           7.3022   -1.2757    0.0000 O.2     1  UNL1       -0.5060
      3 O           3.7782    0.7589    0.0000 O.2     1  UNL1       -0.2835
      4 O           5.5442    1.7967    0.0000 O.2     1  UNL1       -0.2834
      5 O           8.1898    2.2692    0.0000 O.3     1  UNL1       -0.4642
      6 O           7.3296    3.7725    0.0000 O.2     1  UNL1       -0.2512
      7 C           3.8000   -2.2725    0.0000 C.3     1  UNL1       -0.0237
      8 C           3.8000   -1.2725    0.0000 C.3     1  UNL1        0.0006
      9 C           2.9061   -2.8072    0.0000 C.3     1  UNL1       -0.0312
     10 C           2.9061   -0.7379    0.0000 C.3     1  UNL1       -0.0432
     11 C           4.6660   -2.7725    0.0000 C.3     1  UNL1       -0.0182
     12 C           2.0000   -2.2934    0.0000 C.3     1  UNL1       -0.0476
     13 C           2.0000   -1.2517    0.0000 C.3     1  UNL1       -0.0518
     14 C           4.6660   -0.7725    0.0000 C.2     1  UNL1        0.0184
     15 C           5.5321   -2.2725    0.0000 C.3     1  UNL1        0.0873
     16 C           3.8000   -0.2725    0.0000 C.3     1  UNL1       -0.0551
     17 C           5.5321   -1.2725    0.0000 C.2     1  UNL1        0.0304
     18 C           2.4161   -3.6790    0.0000 C.3     1  UNL1       -0.0595
     19 C           3.4160   -3.6674    0.0000 C.3     1  UNL1       -0.0595
     20 C           4.6500    0.2690    0.0000 C.2     1  UNL1        0.2298
     21 C           6.4421   -0.7657    0.0000 C.2     1  UNL1        0.1302
     22 C           6.4501    0.2759    0.0000 C.2     1  UNL1        0.0508
     23 C           5.5480    0.7967    0.0000 C.2     1  UNL1        0.2325
     24 C           7.3180    0.7726    0.0000 C.3     1  UNL1        0.0228
     25 C           6.3981   -3.7725    0.0000 C.3     1  UNL1        0.0372
     26 C           7.3219    1.7726    0.0000 C.3     1  UNL1        0.0992
     27 C           8.1821    0.2692    0.0000 C.3     1  UNL1       -0.0550
     28 C           8.1937    3.2692    0.0000 C.2     1  UNL1        0.3040
     29 C           9.0616    3.7659    0.0000 C.3     1  UNL1        0.0332
     30 H           3.8066   -3.1225    0.0000 H       1  UNL1        0.0315
     31 H           3.3107   -0.2681    0.0000 H       1  UNL1        0.0274
     32 H           2.5124   -0.2589    0.0000 H       1  UNL1        0.0274
     33 H           4.2675   -3.2475    0.0000 H       1  UNL1        0.0297
     34 H           5.0646   -3.2475    0.0000 H       1  UNL1        0.0297
     35 H           1.3891   -2.1873    0.0000 H       1  UNL1        0.0271
     36 H           1.7909   -2.8770    0.0000 H       1  UNL1        0.0271
     37 H           1.7909   -0.6680    0.0000 H       1  UNL1        0.0266
     38 H           1.3891   -1.3578    0.0000 H       1  UNL1        0.0266
     39 H           5.5321   -2.8925    0.0000 H       1  UNL1        0.0647
     40 H           4.4200   -0.2725    0.0000 H       1  UNL1        0.0238
     41 H           3.8000    0.3475    0.0000 H       1  UNL1        0.0238
     42 H           3.1800   -0.2725    0.0000 H       1  UNL1        0.0238
     43 H           1.8756   -3.3752    0.0000 H       1  UNL1        0.0235
     44 H           2.1123   -4.2194    0.0000 H       1  UNL1        0.0235
     45 H           2.9566   -3.9827    0.0000 H       1  UNL1        0.0235
     46 H           2.8827   -3.9836    0.0000 H       1  UNL1        0.0235
     47 H           3.7322   -4.2007    0.0000 H       1  UNL1        0.0235
     48 H           3.9494   -3.3512    0.0000 H       1  UNL1        0.0235
     49 H           7.8562    1.0805    0.0000 H       1  UNL1        0.0381
     50 H           5.7781   -3.7725    0.0000 H       1  UNL1        0.0524
     51 H           6.3981   -4.3925    0.0000 H       1  UNL1        0.0524
     52 H           7.0181   -3.7725    0.0000 H       1  UNL1        0.0524
     53 H           7.8427   -0.9719    0.0000 H       1  UNL1        0.2922
     54 H           7.1121    2.3560    0.0000 H       1  UNL1        0.0703
     55 H           6.7109    1.6672    0.0000 H       1  UNL1        0.0703
     56 H           7.8701   -0.2665    0.0000 H       1  UNL1        0.0237
     57 H           8.7179   -0.0428    0.0000 H       1  UNL1        0.0237
     58 H           8.4942    0.8050    0.0000 H       1  UNL1        0.0237
     59 H           9.3696    3.2277    0.0000 H       1  UNL1        0.0342
     60 H           9.5998    4.0738    0.0000 H       1  UNL1        0.0342
     61 H           8.7537    4.3040    0.0000 H       1  UNL1        0.0342
@<TRIPOS>BOND
     1     1    15    1
     2     1    25    1
     3     2    21    1
     4     2    53    1
     5     3    20    2
     6     4    23    2
     7     5    26    1
     8     5    28    1
     9     6    28    2
    10     7     8    1
    11     7     9    1
    12     7    11    1
    13     7    30    1
    14     8    10    1
    15     8    14    1
    16     8    16    1
    17     9    12    1
    18     9    18    1
    19     9    19    1
    20    10    13    1
    21    10    31    1
    22    10    32    1
    23    11    15    1
    24    11    33    1
    25    11    34    1
    26    12    13    1
    27    12    35    1
    28    12    36    1
    29    13    37    1
    30    13    38    1
    31    14    17    2
    32    14    20    1
    33    15    17    1
    34    15    39    1
    35    16    40    1
    36    16    41    1
    37    16    42    1
    38    17    21    1
    39    18    43    1
    40    18    44    1
    41    18    45    1
    42    19    46    1
    43    19    47    1
    44    19    48    1
    45    20    23    1
    46    21    22    2
    47    22    23    1
    48    22    24    1
    49    24    26    1
    50    24    27    1
    51    24    49    1
    52    25    50    1
    53    25    51    1
    54    25    52    1
    55    26    54    1
    56    26    55    1
    57    27    56    1
    58    27    57    1
    59    27    58    1
    60    28    29    1
    61    29    59    1
    62    29    60    1
    63    29    61    1
