@<TRIPOS>MOLECULE
IMPHY006369
 27 28 0 0 0
SMALL
GASTEIGER

@<TRIPOS>ATOM
      1 O           8.5991   -0.9050    0.0000 O.2     1  UNL1       -0.4226
      2 O           2.5369   -2.4050    0.0000 O.3     1  UNL1       -0.5068
      3 O           8.5991    2.0950    0.0000 O.3     1  UNL1       -0.5064
      4 O          10.3312   -0.9050    0.0000 O.2     1  UNL1       -0.2451
      5 C           5.1350   -0.9050    0.0000 C.ar    1  UNL1       -0.0247
      6 C           6.0010   -0.4050    0.0000 C.2     1  UNL1       -0.0511
      7 C           7.7331   -0.4050    0.0000 C.ar    1  UNL1        0.1354
      8 C           6.8671   -0.9050    0.0000 C.2     1  UNL1       -0.0185
      9 C           4.2690   -0.4050    0.0000 C.ar    1  UNL1       -0.0511
     10 C           5.1350   -1.9050    0.0000 C.ar    1  UNL1       -0.0511
     11 C           7.7331    0.5950    0.0000 C.ar    1  UNL1        0.0225
     12 C           3.4030   -0.9050    0.0000 C.ar    1  UNL1       -0.0196
     13 C           4.2690   -2.4050    0.0000 C.ar    1  UNL1       -0.0196
     14 C           3.4030   -1.9050    0.0000 C.ar    1  UNL1        0.1169
     15 C           8.5991    1.0950    0.0000 C.ar    1  UNL1        0.1271
     16 C           9.4651    0.5950    0.0000 C.ar    1  UNL1        0.0644
     17 C           9.4651   -0.4050    0.0000 C.ar    1  UNL1        0.3407
     18 H           6.0010    0.2150    0.0000 H       1  UNL1        0.0625
     19 H           6.8671   -1.5250    0.0000 H       1  UNL1        0.0654
     20 H           4.2690    0.2150    0.0000 H       1  UNL1        0.0625
     21 H           5.6720   -2.2150    0.0000 H       1  UNL1        0.0625
     22 H           7.1962    0.9050    0.0000 H       1  UNL1        0.0691
     23 H           2.8660   -0.5950    0.0000 H       1  UNL1        0.0654
     24 H           4.2690   -3.0250    0.0000 H       1  UNL1        0.0654
     25 H          10.0021    0.9050    0.0000 H       1  UNL1        0.0726
     26 H           2.0000   -2.0950    0.0000 H       1  UNL1        0.2921
     27 H           9.1360    2.4050    0.0000 H       1  UNL1        0.2921
@<TRIPOS>BOND
     1     1     7   ar
     2     1    17   ar
     3     2    14    1
     4     2    26    1
     5     3    15    1
     6     3    27    1
     7     4    17    2
     8     5     6    1
     9     5     9   ar
    10     5    10   ar
    11     6     8    2
    12     6    18    1
    13     7     8    1
    14     7    11   ar
    15     8    19    1
    16     9    12   ar
    17     9    20    1
    18    10    13   ar
    19    10    21    1
    20    11    15   ar
    21    11    22    1
    22    12    14   ar
    23    12    23    1
    24    13    14   ar
    25    13    24    1
    26    15    16   ar
    27    16    17   ar
    28    16    25    1
