@<TRIPOS>MOLECULE
IMPHY005183
 126 132 0 0 0
SMALL
GASTEIGER

@<TRIPOS>ATOM
      1 O           5.0973   -3.5387    0.0000 O.3     1  UNL1       -0.3911
      2 O           7.8620    4.1821    0.0000 O.3     1  UNL1       -0.3912
      3 O           6.0010   -5.0765    0.0000 O.3     1  UNL1       -0.3480
      4 O           5.4100    3.5187    0.0000 O.3     1  UNL1       -0.3481
      5 O           4.2690   -5.0765    0.0000 O.3     1  UNL1       -0.3405
      6 O           5.4167    5.2507    0.0000 O.3     1  UNL1       -0.3405
      7 O           6.0010   -7.0765    0.0000 O.3     1  UNL1       -0.3841
      8 O           3.4100    3.5264    0.0000 O.3     1  UNL1       -0.3841
      9 O           4.2690   -8.0765    0.0000 O.3     1  UNL1       -0.3864
     10 O           2.4167    5.2623    0.0000 O.3     1  UNL1       -0.3864
     11 O           2.5369   -7.0765    0.0000 O.3     1  UNL1       -0.3865
     12 O           3.4234    6.9905    0.0000 O.3     1  UNL1       -0.3865
     13 O           2.5369   -4.0765    0.0000 O.3     1  UNL1       -0.3924
     14 O           4.9267    7.8507    0.0000 O.3     1  UNL1       -0.3924
     15 C           6.9067   -0.5074    0.0000 C.3     1  UNL1       -0.0193
     16 C           7.7765   -0.0141    0.0000 C.3     1  UNL1       -0.0257
     17 C           7.8006    1.0272    0.0000 C.3     1  UNL1       -0.0249
     18 C           6.8990   -1.5074    0.0000 C.3     1  UNL1       -0.0028
     19 C           6.9067    1.5619    0.0000 C.3     1  UNL1       -0.0255
     20 C           6.0006    0.0064    0.0000 C.3     1  UNL1       -0.0463
     21 C           7.7611   -2.0140    0.0000 C.2     1  UNL1       -0.0632
     22 C           7.7691   -3.0556    0.0000 C.3     1  UNL1       -0.0088
     23 C           6.0006    1.0481    0.0000 C.3     1  UNL1       -0.0485
     24 C           6.9067    2.6469    0.0000 C.3     1  UNL1        0.0206
     25 C           6.8671   -3.5765    0.0000 C.3     1  UNL1        0.0267
     26 C           5.9851   -2.0072    0.0000 C.3     1  UNL1       -0.0166
     27 C           8.6387   -0.5208    0.0000 C.3     1  UNL1       -0.0306
     28 C           8.7565    1.5405    0.0000 C.3     1  UNL1       -0.0447
     29 C           5.9690   -3.0487    0.0000 C.3     1  UNL1        0.0643
     30 C           5.9206   -0.6734    0.0000 C.3     1  UNL1       -0.0585
     31 C           8.6310   -1.5207    0.0000 C.2     1  UNL1       -0.0836
     32 C           7.8505    3.1821    0.0000 C.3     1  UNL1        0.0630
     33 C           8.6588    0.5140    0.0000 C.3     1  UNL1       -0.0590
     34 C           5.9155   -1.3262    0.0000 C.3     1  UNL1       -0.0552
     35 C           8.7816    2.6252    0.0000 C.3     1  UNL1       -0.0257
     36 C           8.7170   -3.5836    0.0000 C.3     1  UNL1       -0.0406
     37 C           6.8503   -4.6613    0.0000 C.3     1  UNL1       -0.0419
     38 C           8.7254   -4.6686    0.0000 C.3     1  UNL1       -0.0343
     39 C           7.7858   -5.2110    0.0000 C.3     1  UNL1       -0.0472
     40 C           6.0010   -4.0765    0.0000 C.3     1  UNL1        0.0593
     41 C           6.4100    3.5148    0.0000 C.3     1  UNL1        0.0588
     42 C           5.9067    2.6508    0.0000 C.3     1  UNL1       -0.0548
     43 C           9.7254   -4.6647    0.0000 C.3     1  UNL1       -0.0598
     44 C           9.2287   -5.5326    0.0000 C.3     1  UNL1       -0.0598
     45 C           5.1350   -5.5765    0.0000 C.3     1  UNL1        0.1879
     46 C           4.9134    4.3867    0.0000 C.3     1  UNL1        0.1879
     47 C           5.1350   -6.5765    0.0000 C.3     1  UNL1        0.1341
     48 C           3.9134    4.3905    0.0000 C.3     1  UNL1        0.1341
     49 C           4.2690   -7.0765    0.0000 C.3     1  UNL1        0.1141
     50 C           3.4167    5.2584    0.0000 C.3     1  UNL1        0.1141
     51 C           3.4030   -5.5765    0.0000 C.3     1  UNL1        0.1130
     52 C           4.9200    6.1187    0.0000 C.3     1  UNL1        0.1130
     53 C           3.4030   -6.5765    0.0000 C.3     1  UNL1        0.1119
     54 C           3.9200    6.1225    0.0000 C.3     1  UNL1        0.1119
     55 C           2.5369   -5.0765    0.0000 C.3     1  UNL1        0.0730
     56 C           5.4234    6.9828    0.0000 C.3     1  UNL1        0.0730
     57 H           8.5191    0.3995    0.0000 H       1  UNL1        0.0315
     58 H           6.1722    1.9897    0.0000 H       1  UNL1        0.0313
     59 H           5.3898    0.1125    0.0000 H       1  UNL1        0.0271
     60 H           5.7916   -0.5773    0.0000 H       1  UNL1        0.0271
     61 H           8.5003   -2.6222    0.0000 H       1  UNL1        0.0353
     62 H           5.7916    1.6318    0.0000 H       1  UNL1        0.0268
     63 H           5.3898    0.9420    0.0000 H       1  UNL1        0.0268
     64 H           5.7850   -1.4204    0.0000 H       1  UNL1        0.0299
     65 H           5.3727   -2.1039    0.0000 H       1  UNL1        0.0299
     66 H           9.2484   -0.6331    0.0000 H       1  UNL1        0.0310
     67 H           8.8552    0.0602    0.0000 H       1  UNL1        0.0310
     68 H           8.9520    0.9521    0.0000 H       1  UNL1        0.0271
     69 H           9.3697    1.6324    0.0000 H       1  UNL1        0.0271
     70 H           5.4363   -2.7315    0.0000 H       1  UNL1        0.0600
     71 H           5.8176   -0.0620    0.0000 H       1  UNL1        0.0235
     72 H           5.3092   -0.7764    0.0000 H       1  UNL1        0.0235
     73 H           6.0235   -1.2848    0.0000 H       1  UNL1        0.0235
     74 H           9.1655   -1.8349    0.0000 H       1  UNL1        0.0572
     75 H           7.3165    3.4973    0.0000 H       1  UNL1        0.0599
     76 H           8.3406   -0.0181    0.0000 H       1  UNL1        0.0235
     77 H           9.1909    0.1957    0.0000 H       1  UNL1        0.0235
     78 H           8.9771    1.0460    0.0000 H       1  UNL1        0.0235
     79 H           6.0279   -0.7164    0.0000 H       1  UNL1        0.0238
     80 H           5.3058   -1.2138    0.0000 H       1  UNL1        0.0238
     81 H           5.8032   -1.9359    0.0000 H       1  UNL1        0.0238
     82 H           9.3899    2.5050    0.0000 H       1  UNL1        0.0290
     83 H           9.0041    3.2039    0.0000 H       1  UNL1        0.0290
     84 H           9.3287   -3.6850    0.0000 H       1  UNL1        0.0276
     85 H           8.9216   -2.9983    0.0000 H       1  UNL1        0.0276
     86 H           6.2412   -4.5458    0.0000 H       1  UNL1        0.0272
     87 H           6.6323   -5.2417    0.0000 H       1  UNL1        0.0272
     88 H           7.3848   -5.6840    0.0000 H       1  UNL1        0.0271
     89 H           8.1831   -5.6870    0.0000 H       1  UNL1        0.0271
     90 H           5.7890   -3.4938    0.0000 H       1  UNL1        0.0567
     91 H           5.3905   -4.1841    0.0000 H       1  UNL1        0.0567
     92 H           6.9934    3.7246    0.0000 H       1  UNL1        0.0567
     93 H           6.3047    4.1258    0.0000 H       1  UNL1        0.0567
     94 H           5.9091    3.2708    0.0000 H       1  UNL1        0.0237
     95 H           5.2867    2.6532    0.0000 H       1  UNL1        0.0237
     96 H           5.9043    2.0308    0.0000 H       1  UNL1        0.0237
     97 H           4.5640   -3.2225    0.0000 H       1  UNL1        0.2098
     98 H           9.7278   -5.2847    0.0000 H       1  UNL1        0.0235
     99 H          10.3454   -4.6623    0.0000 H       1  UNL1        0.0235
    100 H           9.7230   -4.0447    0.0000 H       1  UNL1        0.0235
    101 H           8.6930   -5.8447    0.0000 H       1  UNL1        0.0235
    102 H           9.5408   -6.0684    0.0000 H       1  UNL1        0.0235
    103 H           9.7645   -5.2206    0.0000 H       1  UNL1        0.0235
    104 H           8.4025    4.4858    0.0000 H       1  UNL1        0.2098
    105 H           5.1350   -4.9565    0.0000 H       1  UNL1        0.0937
    106 H           4.6013    3.8509    0.0000 H       1  UNL1        0.0937
    107 H           5.1350   -7.1965    0.0000 H       1  UNL1        0.0671
    108 H           3.2934    4.3929    0.0000 H       1  UNL1        0.0671
    109 H           3.7320   -7.3865    0.0000 H       1  UNL1        0.0648
    110 H           3.1088    5.7966    0.0000 H       1  UNL1        0.0648
    111 H           3.4030   -4.9565    0.0000 H       1  UNL1        0.0647
    112 H           5.5400    6.1163    0.0000 H       1  UNL1        0.0647
    113 H           2.8660   -6.2665    0.0000 H       1  UNL1        0.0647
    114 H           4.2321    6.6583    0.0000 H       1  UNL1        0.0647
    115 H           6.5380   -6.7665    0.0000 H       1  UNL1        0.2101
    116 H           2.7900    3.5288    0.0000 H       1  UNL1        0.2101
    117 H           1.9264   -4.9688    0.0000 H       1  UNL1        0.0584
    118 H           2.3249   -5.6591    0.0000 H       1  UNL1        0.0584
    119 H           5.8968    6.5824    0.0000 H       1  UNL1        0.0584
    120 H           5.8999    7.3795    0.0000 H       1  UNL1        0.0584
    121 H           3.7320   -8.3865    0.0000 H       1  UNL1        0.2100
    122 H           2.1088    5.8004    0.0000 H       1  UNL1        0.2100
    123 H           2.0000   -6.7665    0.0000 H       1  UNL1        0.2100
    124 H           2.8034    6.9929    0.0000 H       1  UNL1        0.2100
    125 H           2.0000   -3.7665    0.0000 H       1  UNL1        0.2095
    126 H           5.2388    8.3865    0.0000 H       1  UNL1        0.2095
@<TRIPOS>BOND
     1    29     1    1
     2     1    97    1
     3    32     2    1
     4     2   104    1
     5     3    40    1
     6    45     3    1
     7     4    41    1
     8    46     4    1
     9     5    45    1
    10     5    51    1
    11     6    46    1
    12     6    52    1
    13    47     7    1
    14     7   115    1
    15    48     8    1
    16     8   116    1
    17    49     9    1
    18     9   121    1
    19    50    10    1
    20    10   122    1
    21    53    11    1
    22    11   123    1
    23    54    12    1
    24    12   124    1
    25    13    55    1
    26    13   125    1
    27    14    56    1
    28    14   126    1
    29    15    16    1
    30    15    18    1
    31    15    20    1
    32    15    30    1
    33    16    17    1
    34    16    27    1
    35    16    57    1
    36    17    19    1
    37    17    28    1
    38    17    33    1
    39    18    21    1
    40    18    26    1
    41    18    34    1
    42    19    23    1
    43    19    24    1
    44    19    58    1
    45    20    23    1
    46    20    59    1
    47    20    60    1
    48    21    22    1
    49    21    31    2
    50    22    25    1
    51    22    36    1
    52    22    61    1
    53    23    62    1
    54    23    63    1
    55    24    32    1
    56    24    41    1
    57    24    42    1
    58    25    29    1
    59    25    37    1
    60    25    40    1
    61    26    29    1
    62    26    64    1
    63    26    65    1
    64    27    31    1
    65    27    66    1
    66    27    67    1
    67    28    35    1
    68    28    68    1
    69    28    69    1
    70    29    70    1
    71    30    71    1
    72    30    72    1
    73    30    73    1
    74    31    74    1
    75    32    35    1
    76    32    75    1
    77    33    76    1
    78    33    77    1
    79    33    78    1
    80    34    79    1
    81    34    80    1
    82    34    81    1
    83    35    82    1
    84    35    83    1
    85    36    38    1
    86    36    84    1
    87    36    85    1
    88    37    39    1
    89    37    86    1
    90    37    87    1
    91    38    39    1
    92    38    43    1
    93    38    44    1
    94    39    88    1
    95    39    89    1
    96    40    90    1
    97    40    91    1
    98    41    92    1
    99    41    93    1
   100    42    94    1
   101    42    95    1
   102    42    96    1
   103    43    98    1
   104    43    99    1
   105    43   100    1
   106    44   101    1
   107    44   102    1
   108    44   103    1
   109    45    47    1
   110    45   105    1
   111    46    48    1
   112    46   106    1
   113    47    49    1
   114    47   107    1
   115    48    50    1
   116    48   108    1
   117    49    53    1
   118    49   109    1
   119    50    54    1
   120    50   110    1
   121    51    53    1
   122    51    55    1
   123    51   111    1
   124    52    54    1
   125    52    56    1
   126    52   112    1
   127    53   113    1
   128    54   114    1
   129    55   117    1
   130    55   118    1
   131    56   119    1
   132    56   120    1
