@<TRIPOS>MOLECULE
IMPHY003566
 77 81 0 0 0
SMALL
GASTEIGER

@<TRIPOS>ATOM
      1 CL          2.0038    4.1274    0.0000 Cl      1  UNL1       -0.1219
      2 F           6.8101    0.4194    0.0000 F       1  UNL1       -0.2380
      3 O           9.9196   -2.2940    0.0000 O.3     1  UNL1       -0.3320
      4 O           9.2676   -3.7551    0.0000 O.3     1  UNL1       -0.3426
      5 O           7.3342    0.9797    0.0000 O.3     1  UNL1       -0.3886
      6 O           9.6430   -0.6056    0.0000 O.2     1  UNL1       -0.2906
      7 O          11.4694   -1.4207    0.0000 O.3     1  UNL1       -0.4570
      8 O           2.8602    1.6241    0.0000 O.2     1  UNL1       -0.4950
      9 O           3.8079   -3.0444    0.0000 O.2     1  UNL1       -0.2960
     10 O          12.4863   -2.8228    0.0000 O.2     1  UNL1       -0.2512
     11 C           8.2002   -1.5203    0.0000 C.3     1  UNL1        0.0123
     12 C           7.3342   -2.0203    0.0000 C.3     1  UNL1       -0.0239
     13 C           6.4681   -1.5203    0.0000 C.3     1  UNL1        0.0039
     14 C           8.9372   -2.1873    0.0000 C.3     1  UNL1        0.1651
     15 C           6.4681   -0.5203    0.0000 C.3     1  UNL1        0.1498
     16 C           8.5321   -3.0951    0.0000 C.3     1  UNL1        0.0987
     17 C           7.5434   -2.9921    0.0000 C.3     1  UNL1       -0.0195
     18 C           8.2002   -0.5203    0.0000 C.3     1  UNL1       -0.0150
     19 C           7.3342   -0.0203    0.0000 C.3     1  UNL1        0.0907
     20 C           5.5742    0.0144    0.0000 C.3     1  UNL1        0.0304
     21 C           5.5742   -2.0549    0.0000 C.3     1  UNL1       -0.0183
     22 C           9.0662   -1.0203    0.0000 C.3     1  UNL1       -0.0561
     23 C           4.6681   -0.4994    0.0000 C.2     1  UNL1       -0.0290
     24 C           9.7467   -1.6002    0.0000 C.2     1  UNL1        0.2051
     25 C          10.1234   -3.2610    0.0000 C.3     1  UNL1        0.1663
     26 C           5.5993    1.0991    0.0000 C.3     1  UNL1       -0.0338
     27 C           4.6681   -1.5411    0.0000 C.2     1  UNL1       -0.0039
     28 C           6.2229    0.7755    0.0000 C.3     1  UNL1       -0.0525
     29 C           4.6681    1.6560    0.0000 C.3     1  UNL1        0.0058
     30 C           3.7243    0.0358    0.0000 C.2     1  UNL1       -0.0200
     31 C          10.6599   -2.0078    0.0000 C.3     1  UNL1        0.1531
     32 C          10.6226   -4.1274    0.0000 C.3     1  UNL1       -0.0108
     33 C          11.1017   -3.0539    0.0000 C.3     1  UNL1       -0.0108
     34 C           3.7243    1.1208    0.0000 C.2     1  UNL1        0.0981
     35 C           3.8040   -2.0444    0.0000 C.2     1  UNL1        0.1465
     36 C           2.8641    2.6241    0.0000 C.3     1  UNL1        0.1025
     37 C          12.3826   -1.8282    0.0000 C.2     1  UNL1        0.3043
     38 C           2.0000    3.1274    0.0000 C.3     1  UNL1        0.0567
     39 C          13.1922   -1.2411    0.0000 C.3     1  UNL1        0.0332
     40 H           6.6471   -2.5208    0.0000 H       1  UNL1        0.0312
     41 H           6.4747   -2.3702    0.0000 H       1  UNL1        0.0339
     42 H           8.1874   -3.8721    0.0000 H       1  UNL1        0.0631
     43 H           6.9269   -3.0581    0.0000 H       1  UNL1        0.0294
     44 H           7.5442   -3.6121    0.0000 H       1  UNL1        0.0294
     45 H           8.8108   -0.6279    0.0000 H       1  UNL1        0.0297
     46 H           8.4122    0.0624    0.0000 H       1  UNL1        0.0297
     47 H           7.8711    0.2897    0.0000 H       1  UNL1        0.0625
     48 H           5.1806   -2.5339    0.0000 H       1  UNL1        0.0318
     49 H           5.9788   -2.5247    0.0000 H       1  UNL1        0.0318
     50 H           9.3762   -1.5572    0.0000 H       1  UNL1        0.0236
     51 H           9.6031   -0.7103    0.0000 H       1  UNL1        0.0236
     52 H           8.7562   -0.4833    0.0000 H       1  UNL1        0.0236
     53 H           6.2075    0.9789    0.0000 H       1  UNL1        0.0279
     54 H           5.8218    1.6778    0.0000 H       1  UNL1        0.0279
     55 H           6.6947    0.3733    0.0000 H       1  UNL1        0.0239
     56 H           6.6250    1.2473    0.0000 H       1  UNL1        0.0239
     57 H           5.7510    1.1776    0.0000 H       1  UNL1        0.0239
     58 H           7.8711    1.2897    0.0000 H       1  UNL1        0.2099
     59 H           5.0727    2.1258    0.0000 H       1  UNL1        0.0344
     60 H           4.2745    2.1350    0.0000 H       1  UNL1        0.0344
     61 H           3.1886   -0.2763    0.0000 H       1  UNL1        0.0654
     62 H          10.3128   -2.5215    0.0000 H       1  UNL1        0.0779
     63 H          11.1055   -2.4389    0.0000 H       1  UNL1        0.0779
     64 H          10.0854   -4.4370    0.0000 H       1  UNL1        0.0281
     65 H          11.2301   -3.6605    0.0000 H       1  UNL1        0.0281
     66 H          10.9322   -4.6646    0.0000 H       1  UNL1        0.0281
     67 H          11.1598   -3.8179    0.0000 H       1  UNL1        0.0281
     68 H          11.7083   -2.9255    0.0000 H       1  UNL1        0.0281
     69 H          10.9733   -2.4474    0.0000 H       1  UNL1        0.0281
     70 H           3.2659   -1.7365    0.0000 H       1  UNL1        0.1078
     71 H           3.4742    2.5141    0.0000 H       1  UNL1        0.0708
     72 H           3.0784    3.2059    0.0000 H       1  UNL1        0.0708
     73 H           1.3898    3.2375    0.0000 H       1  UNL1        0.0463
     74 H           1.7857    2.5457    0.0000 H       1  UNL1        0.0463
     75 H          13.5561   -1.7430    0.0000 H       1  UNL1        0.0342
     76 H          13.6941   -0.8771    0.0000 H       1  UNL1        0.0342
     77 H          12.8282   -0.7392    0.0000 H       1  UNL1        0.0342
@<TRIPOS>BOND
     1     1    38    1
     2    15     2    1
     3     3    14    1
     4     3    25    1
     5     4    16    1
     6     4    25    1
     7    19     5    1
     8     5    58    1
     9     6    24    2
    10     7    31    1
    11     7    37    1
    12     8    34    1
    13     8    36    1
    14     9    35    2
    15    10    37    2
    16    11    12    1
    17    11    14    1
    18    11    18    1
    19    11    22    1
    20    12    13    1
    21    12    17    1
    22    12    40    1
    23    13    15    1
    24    13    21    1
    25    13    41    1
    26    14    16    1
    27    14    24    1
    28    15    19    1
    29    15    20    1
    30    16    17    1
    31    16    42    1
    32    17    43    1
    33    17    44    1
    34    18    19    1
    35    18    45    1
    36    18    46    1
    37    19    47    1
    38    20    23    1
    39    20    26    1
    40    20    28    1
    41    21    27    1
    42    21    48    1
    43    21    49    1
    44    22    50    1
    45    22    51    1
    46    22    52    1
    47    23    27    2
    48    23    30    1
    49    24    31    1
    50    25    32    1
    51    25    33    1
    52    26    29    1
    53    26    53    1
    54    26    54    1
    55    27    35    1
    56    28    55    1
    57    28    56    1
    58    28    57    1
    59    29    34    1
    60    29    59    1
    61    29    60    1
    62    30    34    2
    63    30    61    1
    64    31    62    1
    65    31    63    1
    66    32    64    1
    67    32    66    1
    68    32    67    1
    69    33    65    1
    70    33    68    1
    71    33    69    1
    72    35    70    1
    73    36    38    1
    74    36    71    1
    75    36    72    1
    76    37    39    1
    77    38    73    1
    78    38    74    1
    79    39    75    1
    80    39    76    1
    81    39    77    1
