@<TRIPOS>MOLECULE
IMPHY017293
 18 18 0 0 0
SMALL
GASTEIGER

@<TRIPOS>ATOM
      1 O           3.7320   -2.0950    0.0000 O.3     1  UNL1       -0.5068
      2 O           4.5981    2.4050    0.0000 O.2     1  UNL1       -0.2957
      3 C           2.8660    0.4050    0.0000 C.ar    1  UNL1       -0.0368
      4 C           3.7320    0.9050    0.0000 C.ar    1  UNL1        0.0173
      5 C           2.8660   -0.5950    0.0000 C.ar    1  UNL1       -0.0166
      6 C           4.5981    0.4050    0.0000 C.ar    1  UNL1       -0.0478
      7 C           3.7320   -1.0950    0.0000 C.ar    1  UNL1        0.1171
      8 C           2.0000    0.9050    0.0000 C.3     1  UNL1       -0.0389
      9 C           4.5981   -0.5950    0.0000 C.ar    1  UNL1       -0.0195
     10 C           3.7320    1.9050    0.0000 C.2     1  UNL1        0.1505
     11 H           2.3291   -0.9050    0.0000 H       1  UNL1        0.0657
     12 H           5.1350    0.7150    0.0000 H       1  UNL1        0.0626
     13 H           2.3100    1.4419    0.0000 H       1  UNL1        0.0278
     14 H           1.4631    1.2150    0.0000 H       1  UNL1        0.0278
     15 H           1.6900    0.3681    0.0000 H       1  UNL1        0.0278
     16 H           5.1350   -0.9050    0.0000 H       1  UNL1        0.0654
     17 H           3.1951    2.2150    0.0000 H       1  UNL1        0.1081
     18 H           4.2690   -2.4050    0.0000 H       1  UNL1        0.2921
@<TRIPOS>BOND
     1     1     7    1
     2     1    18    1
     3     2    10    2
     4     3     4   ar
     5     3     5   ar
     6     3     8    1
     7     4     6   ar
     8     4    10    1
     9     5     7   ar
    10     5    11    1
    11     6     9   ar
    12     6    12    1
    13     7     9   ar
    14     8    13    1
    15     8    14    1
    16     8    15    1
    17     9    16    1
    18    10    17    1
