@<TRIPOS>MOLECULE
IMPHY006030
 28 28 0 0 0
SMALL
GASTEIGER

@<TRIPOS>ATOM
      1 O           4.5981    2.3100    0.0000 O.3     1  UNL1       -0.4885
      2 O           6.3301    1.3100    0.0000 O.3     1  UNL1       -0.4913
      3 O           2.8660    1.3100    0.0000 O.3     1  UNL1       -0.4913
      4 O           3.7320   -2.1900    0.0000 O.3     1  UNL1       -0.3904
      5 C           4.5981   -0.6900    0.0000 C.ar    1  UNL1       -0.0150
      6 C           4.5981    1.3100    0.0000 C.ar    1  UNL1        0.2035
      7 C           5.4641    0.8100    0.0000 C.ar    1  UNL1        0.1655
      8 C           3.7320    0.8100    0.0000 C.ar    1  UNL1        0.1655
      9 C           5.4641   -0.1900    0.0000 C.ar    1  UNL1       -0.0107
     10 C           3.7320   -0.1900    0.0000 C.ar    1  UNL1       -0.0107
     11 C           4.5981   -1.6900    0.0000 C.3     1  UNL1        0.0695
     12 C           5.4641    2.8100    0.0000 C.3     1  UNL1        0.0791
     13 C           7.1962    0.8100    0.0000 C.3     1  UNL1        0.0790
     14 C           2.0000    0.8100    0.0000 C.3     1  UNL1        0.0790
     15 H           6.0010   -0.5000    0.0000 H       1  UNL1        0.0659
     16 H           3.1951   -0.5000    0.0000 H       1  UNL1        0.0659
     17 H           4.8101   -2.2726    0.0000 H       1  UNL1        0.0607
     18 H           5.2087   -1.5823    0.0000 H       1  UNL1        0.0607
     19 H           5.7741    2.2731    0.0000 H       1  UNL1        0.0660
     20 H           6.0010    3.1200    0.0000 H       1  UNL1        0.0660
     21 H           5.1541    3.3469    0.0000 H       1  UNL1        0.0660
     22 H           6.8862    0.2731    0.0000 H       1  UNL1        0.0660
     23 H           7.7331    0.5000    0.0000 H       1  UNL1        0.0660
     24 H           7.5062    1.3469    0.0000 H       1  UNL1        0.0660
     25 H           1.6900    1.3469    0.0000 H       1  UNL1        0.0660
     26 H           1.4631    0.5000    0.0000 H       1  UNL1        0.0660
     27 H           2.3100    0.2731    0.0000 H       1  UNL1        0.0660
     28 H           3.7320   -2.8100    0.0000 H       1  UNL1        0.2098
@<TRIPOS>BOND
     1     1     6    1
     2     1    12    1
     3     2     7    1
     4     2    13    1
     5     3     8    1
     6     3    14    1
     7     4    11    1
     8     4    28    1
     9     5     9   ar
    10     5    10   ar
    11     5    11    1
    12     6     7   ar
    13     6     8   ar
    14     7     9   ar
    15     8    10   ar
    16     9    15    1
    17    10    16    1
    18    11    17    1
    19    11    18    1
    20    12    19    1
    21    12    20    1
    22    12    21    1
    23    13    22    1
    24    13    23    1
    25    13    24    1
    26    14    25    1
    27    14    26    1
    28    14    27    1
