@<TRIPOS>MOLECULE
IMPHY014240
 26 26 0 0 0
SMALL
GASTEIGER

@<TRIPOS>ATOM
      1 C           3.7320    0.2500    0.0000 C.3     1  UNL1       -0.0165
      2 C           4.5981   -0.2500    0.0000 C.3     1  UNL1       -0.0428
      3 C           2.8660   -0.2500    0.0000 C.3     1  UNL1       -0.0255
      4 C           4.5981   -1.2500    0.0000 C.3     1  UNL1       -0.0340
      5 C           2.8660   -1.2500    0.0000 C.2     1  UNL1       -0.0760
      6 C           3.7320    1.2500    0.0000 C.2     1  UNL1       -0.0763
      7 C           3.7320   -1.7500    0.0000 C.2     1  UNL1       -0.0850
      8 C           2.0000   -1.7500    0.0000 C.3     1  UNL1       -0.0438
      9 C           4.5981    1.7500    0.0000 C.3     1  UNL1       -0.0438
     10 C           2.8660    1.7500    0.0000 C.2     1  UNL1       -0.0994
     11 H           4.2690    0.5600    0.0000 H       1  UNL1        0.0349
     12 H           5.2087   -0.3577    0.0000 H       1  UNL1        0.0274
     13 H           4.8101    0.3326    0.0000 H       1  UNL1        0.0274
     14 H           2.6540    0.3326    0.0000 H       1  UNL1        0.0316
     15 H           2.2554   -0.3577    0.0000 H       1  UNL1        0.0316
     16 H           4.8101   -1.8326    0.0000 H       1  UNL1        0.0308
     17 H           5.2087   -1.1423    0.0000 H       1  UNL1        0.0308
     18 H           3.7320   -2.3700    0.0000 H       1  UNL1        0.0572
     19 H           1.6900   -1.2131    0.0000 H       1  UNL1        0.0274
     20 H           1.4631   -2.0600    0.0000 H       1  UNL1        0.0274
     21 H           2.3100   -2.2869    0.0000 H       1  UNL1        0.0274
     22 H           4.9081    1.2131    0.0000 H       1  UNL1        0.0274
     23 H           5.1350    2.0600    0.0000 H       1  UNL1        0.0274
     24 H           4.2881    2.2869    0.0000 H       1  UNL1        0.0274
     25 H           2.8660    2.3700    0.0000 H       1  UNL1        0.0534
     26 H           2.3291    1.4400    0.0000 H       1  UNL1        0.0534
@<TRIPOS>BOND
     1     1     2    1
     2     1     3    1
     3     1     6    1
     4     1    11    1
     5     2     4    1
     6     2    12    1
     7     2    13    1
     8     3     5    1
     9     3    14    1
    10     3    15    1
    11     4     7    1
    12     4    16    1
    13     4    17    1
    14     5     7    2
    15     5     8    1
    16     6     9    1
    17     6    10    2
    18     7    18    1
    19     8    19    1
    20     8    20    1
    21     8    21    1
    22     9    22    1
    23     9    23    1
    24     9    24    1
    25    10    25    1
    26    10    26    1
