@<TRIPOS>MOLECULE
IMPHY004868
 57 60 0 0 0
SMALL
GASTEIGER

@<TRIPOS>ATOM
      1 O           5.6500    0.4084    0.0000 O.3     1  UNL1       -0.4904
      2 O           3.9061   -2.6678    0.0000 O.3     1  UNL1       -0.4815
      3 O           9.1783   -0.5914    0.0000 O.3     1  UNL1       -0.5061
      4 O          10.9219    2.4019    0.0000 O.3     1  UNL1       -0.5064
      5 C           7.4501    0.4153    0.0000 C.3     1  UNL1        0.0258
      6 C           7.4420   -0.6263    0.0000 C.3     1  UNL1       -0.0141
      7 C           6.5320   -1.1332    0.0000 C.ar    1  UNL1       -0.0042
      8 C           6.5480    0.9361    0.0000 C.3     1  UNL1        0.0968
      9 C           5.6660   -0.6332    0.0000 C.ar    1  UNL1        0.1343
     10 C           8.3180    0.9119    0.0000 C.ar    1  UNL1        0.0012
     11 C           4.8000   -1.1332    0.0000 C.ar    1  UNL1        0.0584
     12 C           3.0000   -2.1540    0.0000 C.3     1  UNL1        0.1235
     13 C           4.8000   -2.1332    0.0000 C.ar    1  UNL1        0.1324
     14 C           6.5320   -2.1332    0.0000 C.ar    1  UNL1       -0.0516
     15 C           9.1821    0.4086    0.0000 C.ar    1  UNL1        0.1273
     16 C           5.6660   -2.6332    0.0000 C.ar    1  UNL1       -0.0188
     17 C           3.9061   -0.5985    0.0000 C.2     1  UNL1       -0.0478
     18 C           8.3219    1.9119    0.0000 C.ar    1  UNL1       -0.0513
     19 C           3.0000   -1.1123    0.0000 C.2     1  UNL1       -0.0408
     20 C          10.0501    0.9053    0.0000 C.ar    1  UNL1        0.0394
     21 C           2.0000   -2.1578    0.0000 C.3     1  UNL1       -0.0215
     22 C           2.5033   -3.0219    0.0000 C.3     1  UNL1       -0.0215
     23 C           9.1898    2.4086    0.0000 C.ar    1  UNL1       -0.0194
     24 C          10.0539    1.9053    0.0000 C.ar    1  UNL1        0.1238
     25 C          10.9142    0.4019    0.0000 C.3     1  UNL1       -0.0023
     26 C          11.7821    0.8986    0.0000 C.2     1  UNL1       -0.0807
     27 C          12.6462    0.3953    0.0000 C.2     1  UNL1       -0.0793
     28 C          13.5141    0.8919    0.0000 C.3     1  UNL1       -0.0440
     29 C          12.6423   -0.6047    0.0000 C.3     1  UNL1       -0.0440
     30 H           8.1837   -0.0140    0.0000 H       1  UNL1        0.0386
     31 H           7.6466   -1.2116    0.0000 H       1  UNL1        0.0321
     32 H           8.0537   -0.5249    0.0000 H       1  UNL1        0.0321
     33 H           6.9453    1.4121    0.0000 H       1  UNL1        0.0703
     34 H           6.1470    1.4090    0.0000 H       1  UNL1        0.0703
     35 H           7.0690   -2.4432    0.0000 H       1  UNL1        0.0623
     36 H           5.6660   -3.2532    0.0000 H       1  UNL1        0.0654
     37 H           3.9132    0.0215    0.0000 H       1  UNL1        0.0624
     38 H           7.7862    2.2240    0.0000 H       1  UNL1        0.0623
     39 H           2.4643   -0.8003    0.0000 H       1  UNL1        0.0611
     40 H           1.9652   -2.7140    0.0000 H       1  UNL1        0.0271
     41 H           1.9976   -1.5378    0.0000 H       1  UNL1        0.0271
     42 H           1.3800   -2.1602    0.0000 H       1  UNL1        0.0271
     43 H           2.0024   -2.7778    0.0000 H       1  UNL1        0.0271
     44 H           2.1954   -3.5600    0.0000 H       1  UNL1        0.0271
     45 H           3.0415   -3.3298    0.0000 H       1  UNL1        0.0271
     46 H           9.1922    3.0286    0.0000 H       1  UNL1        0.0654
     47 H          10.5138   -0.0715    0.0000 H       1  UNL1        0.0358
     48 H          11.3109   -0.0745    0.0000 H       1  UNL1        0.0358
     49 H           9.7140   -0.9034    0.0000 H       1  UNL1        0.2922
     50 H          11.7845    1.5186    0.0000 H       1  UNL1        0.0575
     51 H          10.9243    3.0219    0.0000 H       1  UNL1        0.2921
     52 H          12.0223   -0.6023    0.0000 H       1  UNL1        0.0274
     53 H          12.6400   -1.2247    0.0000 H       1  UNL1        0.0274
     54 H          13.2623   -0.6071    0.0000 H       1  UNL1        0.0274
     55 H          13.8221    0.3538    0.0000 H       1  UNL1        0.0274
     56 H          14.0523    1.1998    0.0000 H       1  UNL1        0.0274
     57 H          13.2062    1.4300    0.0000 H       1  UNL1        0.0274
@<TRIPOS>BOND
     1     1     8    1
     2     1     9    1
     3     2    12    1
     4     2    13    1
     5     3    15    1
     6     3    49    1
     7     4    24    1
     8     4    51    1
     9     5     6    1
    10     5     8    1
    11     5    10    1
    12     5    30    1
    13     6     7    1
    14     6    31    1
    15     6    32    1
    16     7     9   ar
    17     7    14   ar
    18     8    33    1
    19     8    34    1
    20     9    11   ar
    21    10    15   ar
    22    10    18   ar
    23    11    13   ar
    24    11    17    1
    25    12    19    1
    26    12    21    1
    27    12    22    1
    28    13    16   ar
    29    14    16   ar
    30    14    35    1
    31    15    20   ar
    32    16    36    1
    33    17    19    2
    34    17    37    1
    35    18    23   ar
    36    18    38    1
    37    19    39    1
    38    20    24   ar
    39    20    25    1
    40    21    41    1
    41    21    42    1
    42    21    43    1
    43    22    40    1
    44    22    44    1
    45    22    45    1
    46    23    24   ar
    47    23    46    1
    48    25    26    1
    49    25    47    1
    50    25    48    1
    51    26    27    2
    52    26    50    1
    53    27    28    1
    54    27    29    1
    55    28    55    1
    56    28    56    1
    57    28    57    1
    58    29    52    1
    59    29    53    1
    60    29    54    1
