@<TRIPOS>MOLECULE
IMPHY005947
 96 95 0 0 0
SMALL
GASTEIGER

@<TRIPOS>ATOM
      1 O          14.1244   -2.2500    0.0000 O.3     1  UNL1       -0.4646
      2 O          13.2583   -3.7500    0.0000 O.2     1  UNL1       -0.2509
      3 C          20.1865   -2.7500    0.0000 C.3     1  UNL1       -0.0531
      4 C          21.0526   -2.2500    0.0000 C.3     1  UNL1       -0.0531
      5 C          19.3205   -2.2500    0.0000 C.3     1  UNL1       -0.0531
      6 C          21.9186   -2.7500    0.0000 C.3     1  UNL1       -0.0531
      7 C          18.4545   -2.7500    0.0000 C.3     1  UNL1       -0.0531
      8 C          22.7846   -2.2500    0.0000 C.3     1  UNL1       -0.0531
      9 C          17.5885   -2.2500    0.0000 C.3     1  UNL1       -0.0530
     10 C          23.6506   -2.7500    0.0000 C.3     1  UNL1       -0.0531
     11 C          16.7224   -2.7500    0.0000 C.3     1  UNL1       -0.0500
     12 C          24.5167   -2.2500    0.0000 C.3     1  UNL1       -0.0533
     13 C          15.8564   -2.2500    0.0000 C.3     1  UNL1       -0.0185
     14 C           9.7942   -2.7500    0.0000 C.3     1  UNL1       -0.0530
     15 C           8.9282   -2.2500    0.0000 C.3     1  UNL1       -0.0528
     16 C          10.6603   -2.2500    0.0000 C.3     1  UNL1       -0.0526
     17 C          25.3827   -2.7500    0.0000 C.3     1  UNL1       -0.0559
     18 C           3.7320    0.7500    0.0000 C.3     1  UNL1       -0.0530
     19 C           4.5981    0.2500    0.0000 C.3     1  UNL1       -0.0528
     20 C           8.0622   -2.7500    0.0000 C.3     1  UNL1       -0.0496
     21 C          14.9904   -2.7500    0.0000 C.3     1  UNL1        0.0925
     22 C          11.5263   -2.7500    0.0000 C.3     1  UNL1       -0.0430
     23 C           3.7320    1.7500    0.0000 C.3     1  UNL1       -0.0531
     24 C           4.5981   -0.7500    0.0000 C.3     1  UNL1       -0.0496
     25 C           7.1962   -2.2500    0.0000 C.3     1  UNL1       -0.0348
     26 C           2.8660    2.2500    0.0000 C.3     1  UNL1       -0.0533
     27 C           5.4641   -1.2500    0.0000 C.3     1  UNL1       -0.0348
     28 C          12.3923   -2.2500    0.0000 C.3     1  UNL1        0.0449
     29 C          26.2487   -2.2500    0.0000 C.3     1  UNL1       -0.0653
     30 C           2.8660    3.2500    0.0000 C.3     1  UNL1       -0.0559
     31 C           6.3301   -2.7500    0.0000 C.2     1  UNL1       -0.0879
     32 C           5.4641   -2.2500    0.0000 C.2     1  UNL1       -0.0879
     33 C          13.2583   -2.7500    0.0000 C.2     1  UNL1        0.3071
     34 C           2.0000    3.7500    0.0000 C.3     1  UNL1       -0.0653
     35 H          19.7880   -3.2250    0.0000 H       1  UNL1        0.0265
     36 H          20.5851   -3.2250    0.0000 H       1  UNL1        0.0265
     37 H          21.4511   -1.7750    0.0000 H       1  UNL1        0.0265
     38 H          20.6540   -1.7750    0.0000 H       1  UNL1        0.0265
     39 H          19.7190   -1.7750    0.0000 H       1  UNL1        0.0265
     40 H          18.9220   -1.7750    0.0000 H       1  UNL1        0.0265
     41 H          21.5201   -3.2250    0.0000 H       1  UNL1        0.0265
     42 H          22.3171   -3.2250    0.0000 H       1  UNL1        0.0265
     43 H          18.0560   -3.2250    0.0000 H       1  UNL1        0.0265
     44 H          18.8530   -3.2250    0.0000 H       1  UNL1        0.0265
     45 H          23.1831   -1.7750    0.0000 H       1  UNL1        0.0265
     46 H          22.3861   -1.7750    0.0000 H       1  UNL1        0.0265
     47 H          17.9870   -1.7750    0.0000 H       1  UNL1        0.0265
     48 H          17.1899   -1.7750    0.0000 H       1  UNL1        0.0265
     49 H          23.2521   -3.2250    0.0000 H       1  UNL1        0.0265
     50 H          24.0492   -3.2250    0.0000 H       1  UNL1        0.0265
     51 H          16.3239   -3.2250    0.0000 H       1  UNL1        0.0266
     52 H          17.1210   -3.2250    0.0000 H       1  UNL1        0.0266
     53 H          24.9152   -1.7750    0.0000 H       1  UNL1        0.0265
     54 H          24.1181   -1.7750    0.0000 H       1  UNL1        0.0265
     55 H          16.2549   -1.7750    0.0000 H       1  UNL1        0.0298
     56 H          15.4579   -1.7750    0.0000 H       1  UNL1        0.0298
     57 H           9.3957   -3.2250    0.0000 H       1  UNL1        0.0265
     58 H          10.1928   -3.2250    0.0000 H       1  UNL1        0.0265
     59 H           9.3267   -1.7750    0.0000 H       1  UNL1        0.0265
     60 H           8.5297   -1.7750    0.0000 H       1  UNL1        0.0265
     61 H          11.0588   -1.7750    0.0000 H       1  UNL1        0.0265
     62 H          10.2617   -1.7750    0.0000 H       1  UNL1        0.0265
     63 H           3.1215    0.8577    0.0000 H       1  UNL1        0.0265
     64 H           3.5200    0.1674    0.0000 H       1  UNL1        0.0265
     65 H           5.2087    0.1423    0.0000 H       1  UNL1        0.0265
     66 H           4.8101    0.8326    0.0000 H       1  UNL1        0.0265
     67 H          24.9842   -3.2250    0.0000 H       1  UNL1        0.0263
     68 H          25.7812   -3.2250    0.0000 H       1  UNL1        0.0263
     69 H           7.6636   -3.2250    0.0000 H       1  UNL1        0.0268
     70 H           8.4607   -3.2250    0.0000 H       1  UNL1        0.0268
     71 H          14.5919   -3.2250    0.0000 H       1  UNL1        0.0697
     72 H          15.3889   -3.2250    0.0000 H       1  UNL1        0.0697
     73 H          11.1278   -3.2250    0.0000 H       1  UNL1        0.0270
     74 H          11.9248   -3.2250    0.0000 H       1  UNL1        0.0270
     75 H           4.3426    1.6423    0.0000 H       1  UNL1        0.0265
     76 H           3.9441    2.3326    0.0000 H       1  UNL1        0.0265
     77 H           3.9875   -0.6423    0.0000 H       1  UNL1        0.0268
     78 H           4.3860   -1.3326    0.0000 H       1  UNL1        0.0268
     79 H           7.5947   -1.7750    0.0000 H       1  UNL1        0.0307
     80 H           6.7976   -1.7750    0.0000 H       1  UNL1        0.0307
     81 H           2.2554    2.3577    0.0000 H       1  UNL1        0.0265
     82 H           2.6540    1.6674    0.0000 H       1  UNL1        0.0265
     83 H           6.0747   -1.3577    0.0000 H       1  UNL1        0.0307
     84 H           5.6762   -0.6674    0.0000 H       1  UNL1        0.0307
     85 H          12.7908   -1.7750    0.0000 H       1  UNL1        0.0377
     86 H          11.9938   -1.7750    0.0000 H       1  UNL1        0.0377
     87 H           3.4766    3.1423    0.0000 H       1  UNL1        0.0263
     88 H           3.0781    3.8326    0.0000 H       1  UNL1        0.0263
     89 H          26.5587   -2.7869    0.0000 H       1  UNL1        0.0230
     90 H          26.7856   -1.9400    0.0000 H       1  UNL1        0.0230
     91 H          25.9387   -1.7131    0.0000 H       1  UNL1        0.0230
     92 H           6.3301   -3.3700    0.0000 H       1  UNL1        0.0569
     93 H           4.9272   -2.5600    0.0000 H       1  UNL1        0.0569
     94 H           2.3100    4.2869    0.0000 H       1  UNL1        0.0230
     95 H           1.4631    4.0600    0.0000 H       1  UNL1        0.0230
     96 H           1.6900    3.2131    0.0000 H       1  UNL1        0.0230
@<TRIPOS>BOND
     1     1    21    1
     2     1    33    1
     3     2    33    2
     4     3     4    1
     5     3     5    1
     6     3    35    1
     7     3    36    1
     8     4     6    1
     9     4    37    1
    10     4    38    1
    11     5     7    1
    12     5    39    1
    13     5    40    1
    14     6     8    1
    15     6    41    1
    16     6    42    1
    17     7     9    1
    18     7    43    1
    19     7    44    1
    20     8    10    1
    21     8    45    1
    22     8    46    1
    23     9    11    1
    24     9    47    1
    25     9    48    1
    26    10    12    1
    27    10    49    1
    28    10    50    1
    29    11    13    1
    30    11    51    1
    31    11    52    1
    32    12    17    1
    33    12    53    1
    34    12    54    1
    35    13    21    1
    36    13    55    1
    37    13    56    1
    38    14    15    1
    39    14    16    1
    40    14    57    1
    41    14    58    1
    42    15    20    1
    43    15    59    1
    44    15    60    1
    45    16    22    1
    46    16    61    1
    47    16    62    1
    48    17    29    1
    49    17    67    1
    50    17    68    1
    51    18    19    1
    52    18    23    1
    53    18    63    1
    54    18    64    1
    55    19    24    1
    56    19    65    1
    57    19    66    1
    58    20    25    1
    59    20    69    1
    60    20    70    1
    61    21    71    1
    62    21    72    1
    63    22    28    1
    64    22    73    1
    65    22    74    1
    66    23    26    1
    67    23    75    1
    68    23    76    1
    69    24    27    1
    70    24    77    1
    71    24    78    1
    72    25    31    1
    73    25    79    1
    74    25    80    1
    75    26    30    1
    76    26    81    1
    77    26    82    1
    78    27    32    1
    79    27    83    1
    80    27    84    1
    81    28    33    1
    82    28    85    1
    83    28    86    1
    84    29    89    1
    85    29    90    1
    86    29    91    1
    87    30    34    1
    88    30    87    1
    89    30    88    1
    90    31    32    2
    91    31    92    1
    92    32    93    1
    93    34    94    1
    94    34    95    1
    95    34    96    1
