@<TRIPOS>MOLECULE
IMPHY000999
 49 52 0 0 0
SMALL
GASTEIGER

@<TRIPOS>ATOM
      1 O           3.9030   -0.5817    0.0000 O.3     1  UNL1       -0.3768
      2 O           4.3759   -2.5131    0.0000 O.3     1  UNL1       -0.3852
      3 O           2.8698    0.0328    0.0000 O.3     1  UNL1       -0.4914
      4 O           2.8660    2.0854    0.0000 O.3     1  UNL1       -0.4914
      5 N           7.2787    0.5603    0.0000 N.3     1  UNL1       -0.2886
      6 C           6.4091    0.0583    0.0000 C.3     1  UNL1        0.0714
      7 C           6.6192   -0.9175    0.0000 C.2     1  UNL1       -0.0452
      8 C           5.3894   -0.1449    0.0000 C.3     1  UNL1        0.0027
      9 C           8.0187   -0.1095    0.0000 C.3     1  UNL1        0.0038
     10 C           7.6119   -1.0211    0.0000 C.3     1  UNL1       -0.0167
     11 C           5.5395    0.5603    0.0000 C.ar    1  UNL1       -0.0161
     12 C           4.8699   -0.8370    0.0000 C.3     1  UNL1        0.0900
     13 C           7.2787    1.5645    0.0000 C.3     1  UNL1        0.0040
     14 C           4.9828   -1.7183    0.0000 C.3     1  UNL1        0.0998
     15 C           6.1128   -1.5602    0.0000 C.2     1  UNL1       -0.0521
     16 C           6.4091    2.0665    0.0000 C.3     1  UNL1       -0.0144
     17 C           5.5395    1.5645    0.0000 C.ar    1  UNL1       -0.0372
     18 C           4.6418    0.0234    0.0000 C.ar    1  UNL1       -0.0108
     19 C           4.6418    2.1014    0.0000 C.ar    1  UNL1       -0.0128
     20 C           3.7320    0.5394    0.0000 C.ar    1  UNL1        0.1618
     21 C           3.7320    1.5854    0.0000 C.ar    1  UNL1        0.1618
     22 C           3.1985   -1.2913    0.0000 C.3     1  UNL1        0.0369
     23 C           2.0000    0.5262    0.0000 C.3     1  UNL1        0.0790
     24 C           2.8660    3.0854    0.0000 C.3     1  UNL1        0.0790
     25 H           5.4411    0.4730    0.0000 H       1  UNL1        0.0316
     26 H           4.8100    0.0757    0.0000 H       1  UNL1        0.0316
     27 H           8.5552   -0.4203    0.0000 H       1  UNL1        0.0430
     28 H           8.3841    0.3913    0.0000 H       1  UNL1        0.0430
     29 H           7.4832   -1.6276    0.0000 H       1  UNL1        0.0323
     30 H           8.2015   -1.2128    0.0000 H       1  UNL1        0.0323
     31 H           5.2497   -0.2513    0.0000 H       1  UNL1        0.0626
     32 H           7.8892    1.4568    0.0000 H       1  UNL1        0.0430
     33 H           7.4907    2.1471    0.0000 H       1  UNL1        0.0430
     34 H           5.2957   -2.2536    0.0000 H       1  UNL1        0.0664
     35 H           6.4215   -2.0978    0.0000 H       1  UNL1        0.0599
     36 H           6.8076    2.5415    0.0000 H       1  UNL1        0.0326
     37 H           6.0106    2.5415    0.0000 H       1  UNL1        0.0326
     38 H           4.6490   -0.5965    0.0000 H       1  UNL1        0.0659
     39 H           4.6490    2.7213    0.0000 H       1  UNL1        0.0658
     40 H           4.6146   -3.0854    0.0000 H       1  UNL1        0.2103
     41 H           2.7585   -0.8545    0.0000 H       1  UNL1        0.0524
     42 H           2.7616   -1.7313    0.0000 H       1  UNL1        0.0524
     43 H           3.6384   -1.7281    0.0000 H       1  UNL1        0.0524
     44 H           2.3059    1.0655    0.0000 H       1  UNL1        0.0660
     45 H           1.4607    0.8321    0.0000 H       1  UNL1        0.0660
     46 H           1.6941   -0.0131    0.0000 H       1  UNL1        0.0660
     47 H           3.4860    3.0854    0.0000 H       1  UNL1        0.0660
     48 H           2.8660    3.7054    0.0000 H       1  UNL1        0.0660
     49 H           2.2460    3.0854    0.0000 H       1  UNL1        0.0660
@<TRIPOS>BOND
     1    12     1    1
     2     1    22    1
     3    14     2    1
     4     2    40    1
     5     3    20    1
     6     3    23    1
     7     4    21    1
     8     4    24    1
     9     5     6    1
    10     5     9    1
    11     5    13    1
    12     6     7    1
    13     6     8    1
    14     6    11    1
    15     7    10    1
    16     7    15    2
    17     8    12    1
    18     8    25    1
    19     8    26    1
    20     9    10    1
    21     9    27    1
    22     9    28    1
    23    10    29    1
    24    10    30    1
    25    11    17   ar
    26    11    18   ar
    27    12    14    1
    28    12    31    1
    29    13    16    1
    30    13    32    1
    31    13    33    1
    32    14    15    1
    33    14    34    1
    34    15    35    1
    35    16    17    1
    36    16    36    1
    37    16    37    1
    38    17    19   ar
    39    18    20   ar
    40    18    38    1
    41    19    21   ar
    42    19    39    1
    43    20    21   ar
    44    22    41    1
    45    22    42    1
    46    22    43    1
    47    23    44    1
    48    23    45    1
    49    23    46    1
    50    24    47    1
    51    24    48    1
    52    24    49    1
