@<TRIPOS>MOLECULE
IMPHY005129
 79 83 0 0 0
SMALL
GASTEIGER

@<TRIPOS>ATOM
      1 O           6.0682   -4.0197    0.0000 O.3     1  UNL1       -0.3915
      2 O           2.5381   -3.0438    0.0000 O.3     1  UNL1       -0.3918
      3 C           6.0682   -1.0197    0.0000 C.3     1  UNL1       -0.0193
      4 C           5.2022   -1.5197    0.0000 C.3     1  UNL1       -0.0175
      5 C           5.2020   -0.5192    0.0000 C.3     1  UNL1       -0.0400
      6 C           6.9343   -1.5197    0.0000 C.3     1  UNL1       -0.0266
      7 C           7.8443   -1.0128    0.0000 C.3     1  UNL1       -0.0230
      8 C           5.2022   -2.5197    0.0000 C.3     1  UNL1       -0.0065
      9 C           6.0522    0.0218    0.0000 C.3     1  UNL1       -0.0460
     10 C           7.8523    0.0288    0.0000 C.3     1  UNL1       -0.0233
     11 C           4.3083   -0.9850    0.0000 C.3     1  UNL1       -0.0442
     12 C           6.9343   -2.5197    0.0000 C.3     1  UNL1       -0.0227
     13 C           6.9502    0.5496    0.0000 C.3     1  UNL1       -0.0463
     14 C           6.0682   -3.0197    0.0000 C.3     1  UNL1        0.0589
     15 C           8.8403    0.3386    0.0000 C.3     1  UNL1       -0.0325
     16 C           8.8274   -1.3378    0.0000 C.3     1  UNL1       -0.0466
     17 C           4.3083   -3.0543    0.0000 C.3     1  UNL1       -0.0212
     18 C           9.4418   -0.5043    0.0000 C.3     1  UNL1       -0.0489
     19 C           3.4022   -1.4988    0.0000 C.3     1  UNL1       -0.0263
     20 C           7.8366   -2.0128    0.0000 C.3     1  UNL1       -0.0588
     21 C           3.4022   -2.5405    0.0000 C.3     1  UNL1        0.0556
     22 C           7.8600    1.0288    0.0000 C.3     1  UNL1       -0.0588
     23 C           9.1583    1.2867    0.0000 C.3     1  UNL1       -0.0402
     24 C          10.1384    1.4854    0.0000 C.3     1  UNL1       -0.0465
     25 C           8.4962    2.0361    0.0000 C.3     1  UNL1       -0.0621
     26 C          10.4564    2.4335    0.0000 C.3     1  UNL1       -0.0315
     27 C          11.4364    2.6321    0.0000 C.2     1  UNL1       -0.0740
     28 C          11.7544    3.5802    0.0000 C.3     1  UNL1       -0.0258
     29 C          12.0985    1.8827    0.0000 C.2     1  UNL1       -0.0992
     30 C          12.7345    3.7789    0.0000 C.3     1  UNL1       -0.0590
     31 C          11.0923    4.3297    0.0000 C.3     1  UNL1       -0.0590
     32 H           5.4141    0.0634    0.0000 H       1  UNL1        0.0276
     33 H           4.5914   -0.4116    0.0000 H       1  UNL1        0.0276
     34 H           7.6671   -1.9503    0.0000 H       1  UNL1        0.0313
     35 H           5.2088   -3.3696    0.0000 H       1  UNL1        0.0332
     36 H           5.8342    0.6022    0.0000 H       1  UNL1        0.0271
     37 H           5.4431   -0.0936    0.0000 H       1  UNL1        0.0271
     38 H           4.7129   -0.5152    0.0000 H       1  UNL1        0.0272
     39 H           3.9147   -0.5060    0.0000 H       1  UNL1        0.0272
     40 H           7.1463   -3.1023    0.0000 H       1  UNL1        0.0293
     41 H           7.5449   -2.4120    0.0000 H       1  UNL1        0.0293
     42 H           7.3475    1.0256    0.0000 H       1  UNL1        0.0271
     43 H           6.5493    1.0225    0.0000 H       1  UNL1        0.0271
     44 H           6.6052   -3.3297    0.0000 H       1  UNL1        0.0596
     45 H           9.6810    0.4640    0.0000 H       1  UNL1        0.0309
     46 H           8.5720   -1.9028    0.0000 H       1  UNL1        0.0271
     47 H           9.3624   -1.6512    0.0000 H       1  UNL1        0.0271
     48 H           3.9147   -3.5333    0.0000 H       1  UNL1        0.0294
     49 H           4.7129   -3.5241    0.0000 H       1  UNL1        0.0294
     50 H           9.8994   -0.9226    0.0000 H       1  UNL1        0.0268
     51 H           9.9058   -0.0931    0.0000 H       1  UNL1        0.0268
     52 H           3.1932   -0.9152    0.0000 H       1  UNL1        0.0290
     53 H           2.7914   -1.6049    0.0000 H       1  UNL1        0.0290
     54 H           7.2166   -2.0080    0.0000 H       1  UNL1        0.0235
     55 H           7.8318   -2.6328    0.0000 H       1  UNL1        0.0235
     56 H           8.4566   -2.0176    0.0000 H       1  UNL1        0.0235
     57 H           3.4058   -3.1605    0.0000 H       1  UNL1        0.0593
     58 H           8.4800    1.0240    0.0000 H       1  UNL1        0.0235
     59 H           7.8648    1.6487    0.0000 H       1  UNL1        0.0235
     60 H           7.2400    1.0335    0.0000 H       1  UNL1        0.0235
     61 H           9.3555    1.8745    0.0000 H       1  UNL1        0.0301
     62 H           6.6052   -4.3297    0.0000 H       1  UNL1        0.2098
     63 H          10.1542    0.8656    0.0000 H       1  UNL1        0.0271
     64 H          10.7515    1.3933    0.0000 H       1  UNL1        0.0271
     65 H           8.9609    2.4466    0.0000 H       1  UNL1        0.0233
     66 H           8.0857    2.5008    0.0000 H       1  UNL1        0.0233
     67 H           8.0316    1.6256    0.0000 H       1  UNL1        0.0233
     68 H           2.0000   -2.7359    0.0000 H       1  UNL1        0.2098
     69 H          10.4406    3.0533    0.0000 H       1  UNL1        0.0310
     70 H           9.8432    2.5255    0.0000 H       1  UNL1        0.0310
     71 H          12.1649    3.1156    0.0000 H       1  UNL1        0.0340
     72 H          11.9014    1.2949    0.0000 H       1  UNL1        0.0534
     73 H          12.7062    2.0059    0.0000 H       1  UNL1        0.0534
     74 H          12.8577    3.1713    0.0000 H       1  UNL1        0.0235
     75 H          13.3421    3.9021    0.0000 H       1  UNL1        0.0235
     76 H          12.6113    4.3865    0.0000 H       1  UNL1        0.0235
     77 H          11.5570    4.7402    0.0000 H       1  UNL1        0.0235
     78 H          10.6818    4.7943    0.0000 H       1  UNL1        0.0235
     79 H          10.6277    3.9192    0.0000 H       1  UNL1        0.0235
@<TRIPOS>BOND
     1    14     1    1
     2     1    62    1
     3    21     2    1
     4     2    68    1
     5     3     4    1
     6     3     5    1
     7     3     6    1
     8     3     9    1
     9     4     5    1
    10     4     8    1
    11     4    11    1
    12     5    32    1
    13     5    33    1
    14     6     7    1
    15     6    12    1
    16     6    34    1
    17     7    10    1
    18     7    16    1
    19     7    20    1
    20     8    14    1
    21     8    17    1
    22     8    35    1
    23     9    13    1
    24     9    36    1
    25     9    37    1
    26    10    13    1
    27    10    15    1
    28    10    22    1
    29    11    19    1
    30    11    38    1
    31    11    39    1
    32    12    14    1
    33    12    40    1
    34    12    41    1
    35    13    42    1
    36    13    43    1
    37    14    44    1
    38    15    18    1
    39    15    23    1
    40    15    45    1
    41    16    18    1
    42    16    46    1
    43    16    47    1
    44    17    21    1
    45    17    48    1
    46    17    49    1
    47    18    50    1
    48    18    51    1
    49    19    21    1
    50    19    52    1
    51    19    53    1
    52    20    54    1
    53    20    55    1
    54    20    56    1
    55    21    57    1
    56    22    58    1
    57    22    59    1
    58    22    60    1
    59    23    24    1
    60    23    25    1
    61    23    61    1
    62    24    26    1
    63    24    63    1
    64    24    64    1
    65    25    65    1
    66    25    66    1
    67    25    67    1
    68    26    27    1
    69    26    69    1
    70    26    70    1
    71    27    28    1
    72    27    29    2
    73    28    30    1
    74    28    31    1
    75    28    71    1
    76    29    72    1
    77    29    73    1
    78    30    74    1
    79    30    75    1
    80    30    76    1
    81    31    77    1
    82    31    78    1
    83    31    79    1
