@<TRIPOS>MOLECULE
IMPHY013121
 66 71 0 0 0
SMALL
GASTEIGER

@<TRIPOS>ATOM
      1 O           5.6604   -1.5203    0.0000 O.3     1  UNL1       -0.3512
      2 O           8.3550   -2.0619    0.0000 O.3     1  UNL1       -0.4539
      3 O           4.8225   -2.0480    0.0000 O.2     1  UNL1       -0.2967
      4 O           2.6697    1.8740    0.0000 O.3     1  UNL1       -0.4583
      5 O           5.9204    2.3238    0.0000 O.3     1  UNL1       -0.3907
      6 O           7.4490   -3.5827    0.0000 O.2     1  UNL1       -0.2478
      7 O          10.7858   -0.1556    0.0000 O.2     1  UNL1       -0.4706
      8 O           2.7595    3.5827    0.0000 O.2     1  UNL1       -0.2507
      9 C           6.5709   -1.0135    0.0000 C.3     1  UNL1        0.1283
     10 C           5.7049   -0.5135    0.0000 C.3     1  UNL1        0.0621
     11 C           7.4369   -0.5135    0.0000 C.3     1  UNL1        0.0422
     12 C           5.7049    0.4865    0.0000 C.3     1  UNL1       -0.0180
     13 C           6.5548   -2.0550    0.0000 C.3     1  UNL1        0.1861
     14 C           4.8109    1.0212    0.0000 C.3     1  UNL1        0.0050
     15 C           7.4369    0.4865    0.0000 C.3     1  UNL1       -0.0408
     16 C           6.5709    0.9865    0.0000 C.3     1  UNL1       -0.0479
     17 C           3.9049    0.5074    0.0000 C.3     1  UNL1        0.0132
     18 C           4.8109   -1.0481    0.0000 C.2     1  UNL1        0.1427
     19 C           8.3469   -1.0203    0.0000 C.3     1  UNL1        0.1391
     20 C           6.3550   -1.6392    0.0000 C.3     1  UNL1       -0.0498
     21 C           3.9049   -0.5343    0.0000 C.3     1  UNL1        0.0135
     22 C           8.3029   -0.0135    0.0000 C.3     1  UNL1       -0.0531
     23 C           4.9642    2.0313    0.0000 C.3     1  UNL1        0.0713
     24 C           7.4529   -2.5827    0.0000 C.2     1  UNL1        0.3398
     25 C           2.9594    0.8943    0.0000 C.3     1  UNL1        0.1117
     26 C           5.6808    1.5145    0.0000 C.3     1  UNL1       -0.0565
     27 C           9.2071   -0.5103    0.0000 C.ar    1  UNL1        0.0310
     28 C           4.2721    2.7827    0.0000 C.3     1  UNL1        0.0714
     29 C           2.0000    0.6121    0.0000 C.3     1  UNL1       -0.0248
     30 C           2.5819   -0.0317    0.0000 C.3     1  UNL1       -0.0248
     31 C           3.2528    2.7129    0.0000 C.2     1  UNL1        0.3101
     32 C           9.3001    0.4853    0.0000 C.ar    1  UNL1       -0.0172
     33 C          10.1253   -0.9065    0.0000 C.ar    1  UNL1        0.0984
     34 C          10.2758    0.7046    0.0000 C.ar    1  UNL1        0.0921
     35 H           6.2418    0.1765    0.0000 H       1  UNL1        0.0317
     36 H           6.2387   -2.5883    0.0000 H       1  UNL1        0.0743
     37 H           8.0475    0.3789    0.0000 H       1  UNL1        0.0273
     38 H           7.6490    1.0692    0.0000 H       1  UNL1        0.0273
     39 H           6.9694    1.4615    0.0000 H       1  UNL1        0.0269
     40 H           6.1724    1.4615    0.0000 H       1  UNL1        0.0269
     41 H           3.3901    0.1618    0.0000 H       1  UNL1        0.0349
     42 H           8.8868   -1.3251    0.0000 H       1  UNL1        0.0793
     43 H           5.8181   -1.9493    0.0000 H       1  UNL1        0.0240
     44 H           6.6650   -2.1761    0.0000 H       1  UNL1        0.0240
     45 H           6.8919   -1.3292    0.0000 H       1  UNL1        0.0240
     46 H           3.2940   -0.4282    0.0000 H       1  UNL1        0.0346
     47 H           3.6958   -1.1180    0.0000 H       1  UNL1        0.0346
     48 H           8.6130   -0.5504    0.0000 H       1  UNL1        0.0237
     49 H           8.8399    0.2965    0.0000 H       1  UNL1        0.0237
     50 H           7.9930    0.5235    0.0000 H       1  UNL1        0.0237
     51 H           5.1264    2.6297    0.0000 H       1  UNL1        0.0604
     52 H           5.9866    0.9752    0.0000 H       1  UNL1        0.0236
     53 H           6.2201    1.8204    0.0000 H       1  UNL1        0.0236
     54 H           5.3749    2.0538    0.0000 H       1  UNL1        0.0236
     55 H           4.8104    3.0903    0.0000 H       1  UNL1        0.0403
     56 H           4.0926    3.3762    0.0000 H       1  UNL1        0.0403
     57 H           1.8250    1.2069    0.0000 H       1  UNL1        0.0268
     58 H           1.4052    0.4371    0.0000 H       1  UNL1        0.0268
     59 H           2.1750    0.0173    0.0000 H       1  UNL1        0.0268
     60 H           2.0077    0.2023    0.0000 H       1  UNL1        0.0268
     61 H           2.3478   -0.6058    0.0000 H       1  UNL1        0.0268
     62 H           3.1560   -0.2658    0.0000 H       1  UNL1        0.0268
     63 H           6.0598    2.9279    0.0000 H       1  UNL1        0.2098
     64 H           8.8346    0.8948    0.0000 H       1  UNL1        0.0653
     65 H          10.2612   -1.5114    0.0000 H       1  UNL1        0.1033
     66 H          10.5214    1.2738    0.0000 H       1  UNL1        0.1029
@<TRIPOS>BOND
     1     1     9    1
     2     1    13    1
     3     2    19    1
     4     2    24    1
     5     3    18    2
     6     4    25    1
     7     4    31    1
     8     5    23    1
     9     5    63    1
    10     6    24    2
    11     7    33   ar
    12     7    34   ar
    13     8    31    2
    14     9    10    1
    15     9    11    1
    16     9    13    1
    17    10    12    1
    18    10    18    1
    19    10    20    1
    20    11    15    1
    21    11    19    1
    22    11    22    1
    23    12    14    1
    24    12    16    1
    25    12    35    1
    26    13    24    1
    27    13    36    1
    28    14    17    1
    29    14    23    1
    30    14    26    1
    31    15    16    1
    32    15    37    1
    33    15    38    1
    34    16    39    1
    35    16    40    1
    36    17    21    1
    37    17    25    1
    38    17    41    1
    39    18    21    1
    40    19    27    1
    41    19    42    1
    42    20    43    1
    43    20    44    1
    44    20    45    1
    45    21    46    1
    46    21    47    1
    47    22    48    1
    48    22    49    1
    49    22    50    1
    50    23    28    1
    51    23    51    1
    52    25    29    1
    53    25    30    1
    54    26    52    1
    55    26    53    1
    56    26    54    1
    57    27    32   ar
    58    27    33   ar
    59    28    31    1
    60    28    55    1
    61    28    56    1
    62    29    57    1
    63    29    58    1
    64    29    59    1
    65    30    60    1
    66    30    61    1
    67    30    62    1
    68    32    34   ar
    69    32    64    1
    70    33    65    1
    71    34    66    1
