@<TRIPOS>MOLECULE
IMPHY015163
 22 22 0 0 0
SMALL
GASTEIGER

@<TRIPOS>ATOM
      1 O           2.0000    0.5000    0.0000 O.3     1  UNL1       -0.3751
      2 O           4.5981    1.0000    0.0000 O.3     1  UNL1       -0.3751
      3 O           3.7320   -0.5000    0.0000 O.3     1  UNL1       -0.2324
      4 O           4.5981   -1.0000    0.0000 O.3     1  UNL1       -0.2324
      5 C           2.8660    1.0000    0.0000 C.3     1  UNL1        0.0711
      6 C           3.7320    0.5000    0.0000 C.3     1  UNL1        0.0711
      7 C           2.0000   -0.5000    0.0000 C.3     1  UNL1        0.0741
      8 C           5.4641    0.5000    0.0000 C.3     1  UNL1        0.0741
      9 C           2.8660   -1.0000    0.0000 C.3     1  UNL1        0.1061
     10 C           5.4641   -0.5000    0.0000 C.3     1  UNL1        0.1061
     11 H           3.2646    1.4750    0.0000 H       1  UNL1        0.0583
     12 H           2.4675    1.4750    0.0000 H       1  UNL1        0.0583
     13 H           3.3335    0.0251    0.0000 H       1  UNL1        0.0583
     14 H           4.1306    0.0251    0.0000 H       1  UNL1        0.0583
     15 H           1.3894   -0.3923    0.0000 H       1  UNL1        0.0584
     16 H           1.7880   -1.0826    0.0000 H       1  UNL1        0.0584
     17 H           6.0747    0.3923    0.0000 H       1  UNL1        0.0584
     18 H           5.6762    1.0826    0.0000 H       1  UNL1        0.0584
     19 H           2.4675   -1.4750    0.0000 H       1  UNL1        0.0615
     20 H           3.2646   -1.4750    0.0000 H       1  UNL1        0.0615
     21 H           5.6762   -1.0826    0.0000 H       1  UNL1        0.0615
     22 H           6.0747   -0.3923    0.0000 H       1  UNL1        0.0615
@<TRIPOS>BOND
     1     1     5    1
     2     1     7    1
     3     2     6    1
     4     2     8    1
     5     3     4    1
     6     3     9    1
     7     4    10    1
     8     5     6    1
     9     5    11    1
    10     5    12    1
    11     6    13    1
    12     6    14    1
    13     7     9    1
    14     7    15    1
    15     7    16    1
    16     8    10    1
    17     8    17    1
    18     8    18    1
    19     9    19    1
    20     9    20    1
    21    10    21    1
    22    10    22    1
