@<TRIPOS>MOLECULE
IMPHY012595
 40 43 0 0 0
SMALL
GASTEIGER

@<TRIPOS>ATOM
      1 O           2.5691   -0.0788    0.0000 O.3     1  UNL1       -0.3947
      2 C           6.8490   -1.5025    0.0000 C.3     1  UNL1       -0.0199
      3 C           6.3490   -0.6365    0.0000 C.3     1  UNL1       -0.0281
      4 C           7.3490   -0.6365    0.0000 C.3     1  UNL1       -0.0310
      5 C           6.7575    1.9248    0.0000 C.3     1  UNL1       -0.0230
      6 C           6.8490    0.8934    0.0000 C.3     1  UNL1       -0.0315
      7 C           6.0442    0.3098    0.0000 C.3     1  UNL1       -0.0309
      8 C           7.6537    0.3098    0.0000 C.3     1  UNL1       -0.0458
      9 C           5.0923    0.7171    0.0000 C.3     1  UNL1       -0.0330
     10 C           5.8152    2.3540    0.0000 C.3     1  UNL1       -0.0466
     11 C           6.8490   -2.5025    0.0000 C.3     1  UNL1       -0.0585
     12 C           4.9770    1.7461    0.0000 C.3     1  UNL1       -0.0491
     13 C           7.5738    2.5025    0.0000 C.3     1  UNL1       -0.0588
     14 C           4.2896    0.1207    0.0000 C.3     1  UNL1       -0.0175
     15 C           3.3718    0.5177    0.0000 C.3     1  UNL1        0.0470
     16 C           4.4048   -0.8726    0.0000 C.3     1  UNL1       -0.0601
     17 H           5.7822   -0.8879    0.0000 H       1  UNL1        0.0312
     18 H           7.9157   -0.8879    0.0000 H       1  UNL1        0.0309
     19 H           7.3883    1.1992    0.0000 H       1  UNL1        0.0309
     20 H           5.5860   -0.1078    0.0000 H       1  UNL1        0.0309
     21 H           8.2206    0.0587    0.0000 H       1  UNL1        0.0271
     22 H           7.9629    0.8471    0.0000 H       1  UNL1        0.0271
     23 H           4.5237    0.9643    0.0000 H       1  UNL1        0.0307
     24 H           6.1650    2.8660    0.0000 H       1  UNL1        0.0271
     25 H           5.3707    2.7863    0.0000 H       1  UNL1        0.0271
     26 H           6.2290   -2.5025    0.0000 H       1  UNL1        0.0235
     27 H           6.8490   -3.1225    0.0000 H       1  UNL1        0.0235
     28 H           7.4690   -2.5025    0.0000 H       1  UNL1        0.0235
     29 H           4.7042    2.3029    0.0000 H       1  UNL1        0.0268
     30 H           4.3818    1.5727    0.0000 H       1  UNL1        0.0268
     31 H           7.9320    1.9964    0.0000 H       1  UNL1        0.0235
     32 H           8.0799    2.8606    0.0000 H       1  UNL1        0.0235
     33 H           7.2156    3.0086    0.0000 H       1  UNL1        0.0235
     34 H           3.7919   -0.2491    0.0000 H       1  UNL1        0.0323
     35 H           3.7129    1.0353    0.0000 H       1  UNL1        0.0560
     36 H           2.9212    0.9435    0.0000 H       1  UNL1        0.0560
     37 H           3.7889   -0.9440    0.0000 H       1  UNL1        0.0233
     38 H           4.4761   -1.4885    0.0000 H       1  UNL1        0.0233
     39 H           5.0206   -0.8012    0.0000 H       1  UNL1        0.0233
     40 H           2.0000    0.1673    0.0000 H       1  UNL1        0.2094
@<TRIPOS>BOND
     1     1    15    1
     2     1    40    1
     3     2     3    1
     4     2     4    1
     5     2     5    1
     6     2    11    1
     7     3     4    1
     8     3     7    1
     9     3    17    1
    10     4     8    1
    11     4    18    1
    12     5     6    1
    13     5    10    1
    14     5    13    1
    15     6     7    1
    16     6     8    1
    17     6    19    1
    18     7     9    1
    19     7    20    1
    20     8    21    1
    21     8    22    1
    22     9    12    1
    23     9    14    1
    24     9    23    1
    25    10    12    1
    26    10    24    1
    27    10    25    1
    28    11    26    1
    29    11    27    1
    30    11    28    1
    31    12    29    1
    32    12    30    1
    33    13    31    1
    34    13    32    1
    35    13    33    1
    36    14    15    1
    37    14    16    1
    38    14    34    1
    39    15    35    1
    40    15    36    1
    41    16    37    1
    42    16    38    1
    43    16    39    1
