@<TRIPOS>MOLECULE
IMPHY012848
 23 22 0 0 0
SMALL
GASTEIGER

@<TRIPOS>ATOM
      1 O           6.0010   -1.2500    0.0000 O.2     1  ALA1       -0.2741
      2 O           2.5369   -0.2500    0.0000 O.3     2  ALA2       -0.4793
      3 OXT         3.4030    1.2500    0.0000 O.2     2  ALA2       -0.2489
      4 N           5.1350    0.2500    0.0000 N.am    2  ALA2       -0.3013
      5 N           7.7331   -0.2500    0.0000 N.3     1  ALA1       -0.3202
      6 CA          4.2690   -0.2500    0.0000 C.3     2  ALA2        0.1174
      7 CA          6.8671    0.2500    0.0000 C.3     1  ALA1        0.0794
      8 C           6.0010   -0.2500    0.0000 C.2     1  ALA1        0.2302
      9 CB          4.2690   -1.2500    0.0000 C.3     2  ALA2       -0.0362
     10 CB          6.8671    1.2500    0.0000 C.3     1  ALA1       -0.0414
     11 C           3.4030    0.2500    0.0000 C.2     2  ALA2        0.3250
     12 HA          4.2690    0.3700    0.0000 H       2  ALA2        0.0611
     13 HA          7.4040    0.5600    0.0000 H       1  ALA1        0.0551
     14 H           5.1350    0.8700    0.0000 H       2  ALA2        0.1495
     15 HB1         3.6490   -1.2500    0.0000 H       2  ALA2        0.0253
     16 HB2         4.2690   -1.8700    0.0000 H       2  ALA2        0.0253
     17 HB3         4.8890   -1.2500    0.0000 H       2  ALA2        0.0253
     18 HB1         7.4871    1.2500    0.0000 H       1  ALA1        0.0249
     19 HB2         6.8671    1.8700    0.0000 H       1  ALA1        0.0249
     20 HB3         6.2471    1.2500    0.0000 H       1  ALA1        0.0249
     21 H1          8.2700    0.0600    0.0000 H       1  ALA1        0.1189
     22 H2          7.7331   -0.8700    0.0000 H       1  ALA1        0.1189
     23 H           2.0000    0.0600    0.0000 H       2  ALA2        0.2951
@<TRIPOS>BOND
     1     1     8    2
     2     2    11    1
     3     2    23    1
     4     3    11    2
     5     6     4    1
     6     4     8   am
     7     4    14    1
     8     7     5    1
     9     5    21    1
    10     5    22    1
    11     6     9    1
    12     6    11    1
    13     6    12    1
    14     7     8    1
    15     7    10    1
    16     7    13    1
    17     9    15    1
    18     9    16    1
    19     9    17    1
    20    10    18    1
    21    10    19    1
    22    10    20    1
