@<TRIPOS>MOLECULE
IMPHY005632
 49 53 0 0 0
SMALL
GASTEIGER

@<TRIPOS>ATOM
      1 O           6.5678    0.1136    0.0000 O.3     1  UNL1       -0.4510
      2 O           9.3170   -1.6905    0.0000 O.3     1  UNL1       -0.4526
      3 O           9.3170   -3.3000    0.0000 O.3     1  UNL1       -0.4526
      4 O           4.9425    2.7779    0.0000 O.3     1  UNL1       -0.4906
      5 O           6.8739    1.8634    0.0000 O.2     1  UNL1       -0.2448
      6 O           2.9808    2.3882    0.0000 O.3     1  UNL1       -0.4914
      7 N           4.8387   -1.9744    0.0000 N.3     1  UNL1       -0.2947
      8 C           5.7448   -1.4606    0.0000 C.3     1  UNL1        0.0773
      9 C           5.7563   -0.4606    0.0000 C.3     1  UNL1        0.1487
     10 C           6.6387   -1.9952    0.0000 C.ar    1  UNL1       -0.0195
     11 C           4.8387   -3.0161    0.0000 C.3     1  UNL1        0.0033
     12 C           6.6387   -2.9952    0.0000 C.ar    1  UNL1       -0.0377
     13 C           5.7448   -3.5299    0.0000 C.3     1  UNL1       -0.0144
     14 C           4.9584    0.1322    0.0000 C.ar    1  UNL1        0.0123
     15 C           7.5047   -1.4952    0.0000 C.ar    1  UNL1       -0.0111
     16 C           3.9746   -1.4711    0.0000 C.3     1  UNL1       -0.0120
     17 C           5.2800    1.0791    0.0000 C.ar    1  UNL1        0.1108
     18 C           7.5047   -3.4952    0.0000 C.ar    1  UNL1       -0.0126
     19 C           8.3708   -1.9952    0.0000 C.ar    1  UNL1        0.1666
     20 C           6.2740    1.0633    0.0000 C.2     1  UNL1        0.3439
     21 C           8.3708   -2.9952    0.0000 C.ar    1  UNL1        0.1665
     22 C           3.9776   -0.0627    0.0000 C.ar    1  UNL1       -0.0505
     23 C           4.6208    1.8311    0.0000 C.ar    1  UNL1        0.1758
     24 C           3.3184    0.6893    0.0000 C.ar    1  UNL1       -0.0159
     25 C           3.6400    1.6362    0.0000 C.ar    1  UNL1        0.1623
     26 C           9.9006   -2.4952    0.0000 C.3     1  UNL1        0.2332
     27 C           4.2833    3.5299    0.0000 C.3     1  UNL1        0.0790
     28 C           2.0000    2.1933    0.0000 C.3     1  UNL1        0.0790
     29 H           5.0128   -1.0285    0.0000 H       1  UNL1        0.0553
     30 H           6.5090   -0.8556    0.0000 H       1  UNL1        0.0805
     31 H           4.2278   -2.9100    0.0000 H       1  UNL1        0.0430
     32 H           4.6296   -3.5998    0.0000 H       1  UNL1        0.0430
     33 H           5.3511   -4.0089    0.0000 H       1  UNL1        0.0326
     34 H           6.1494   -3.9997    0.0000 H       1  UNL1        0.0326
     35 H           7.5047   -0.8752    0.0000 H       1  UNL1        0.0659
     36 H           4.2867   -0.9354    0.0000 H       1  UNL1        0.0391
     37 H           3.4389   -1.1590    0.0000 H       1  UNL1        0.0391
     38 H           3.6625   -2.0068    0.0000 H       1  UNL1        0.0391
     39 H           7.5047   -4.1152    0.0000 H       1  UNL1        0.0658
     40 H           3.7782   -0.6497    0.0000 H       1  UNL1        0.0623
     41 H           2.7103    0.5685    0.0000 H       1  UNL1        0.0655
     42 H          10.3615   -2.9100    0.0000 H       1  UNL1        0.1166
     43 H          10.3615   -2.0805    0.0000 H       1  UNL1        0.1166
     44 H           4.7495    3.9386    0.0000 H       1  UNL1        0.0660
     45 H           3.8746    3.9961    0.0000 H       1  UNL1        0.0660
     46 H           3.8171    3.1212    0.0000 H       1  UNL1        0.0660
     47 H           1.8792    2.8014    0.0000 H       1  UNL1        0.0660
     48 H           1.3919    2.0724    0.0000 H       1  UNL1        0.0660
     49 H           2.1208    1.5852    0.0000 H       1  UNL1        0.0660
@<TRIPOS>BOND
     1     1     9    1
     2     1    20    1
     3     2    19    1
     4     2    26    1
     5     3    21    1
     6     3    26    1
     7     4    23    1
     8     4    27    1
     9     5    20    2
    10     6    25    1
    11     6    28    1
    12     7     8    1
    13     7    11    1
    14     7    16    1
    15     8     9    1
    16     8    10    1
    17     8    29    1
    18     9    14    1
    19     9    30    1
    20    10    12   ar
    21    10    15   ar
    22    11    13    1
    23    11    31    1
    24    11    32    1
    25    12    13    1
    26    12    18   ar
    27    13    33    1
    28    13    34    1
    29    14    17   ar
    30    14    22   ar
    31    15    19   ar
    32    15    35    1
    33    16    36    1
    34    16    37    1
    35    16    38    1
    36    17    20    1
    37    17    23   ar
    38    18    21   ar
    39    18    39    1
    40    19    21   ar
    41    22    24   ar
    42    22    40    1
    43    23    25   ar
    44    24    25   ar
    45    24    41    1
    46    26    42    1
    47    26    43    1
    48    27    44    1
    49    27    45    1
    50    27    46    1
    51    28    47    1
    52    28    48    1
    53    28    49    1
