@<TRIPOS>MOLECULE
IMPHY013074
 34 37 0 0 0
SMALL
GASTEIGER

@<TRIPOS>ATOM
      1 O           3.7702    1.3137    0.0000 O.2     1  UNL1       -0.4471
      2 O           2.8522   -1.2347    0.0000 O.2     1  UNL1       -0.4195
      3 O           7.2724    1.3106    0.0000 O.3     1  UNL1       -0.5055
      4 O           6.3683   -0.1863    0.0000 O.2     1  UNL1       -0.2862
      5 O           5.5143    4.3830    0.0000 O.3     1  UNL1       -0.5063
      6 O           2.0000    0.3169    0.0000 O.2     1  UNL1       -0.2410
      7 O           4.6894   -4.3830    0.0000 O.3     1  UNL1       -0.5066
      8 C           4.6362   -0.1863    0.0000 C.ar    1  UNL1        0.0825
      9 C           5.5022    1.3137    0.0000 C.ar    1  UNL1        0.1064
     10 C           4.6523   -1.2278    0.0000 C.ar    1  UNL1        0.0322
     11 C           5.5022    0.3137    0.0000 C.ar    1  UNL1        0.2046
     12 C           4.6362    1.8137    0.0000 C.ar    1  UNL1        0.1466
     13 C           3.7702    0.3137    0.0000 C.ar    1  UNL1        0.2238
     14 C           6.4122    1.8206    0.0000 C.ar    1  UNL1        0.1376
     15 C           3.7542   -1.7555    0.0000 C.ar    1  UNL1        0.1434
     16 C           6.4203    2.8622    0.0000 C.ar    1  UNL1        0.0332
     17 C           4.6202    2.8552    0.0000 C.ar    1  UNL1        0.0234
     18 C           5.5182    3.3830    0.0000 C.ar    1  UNL1        0.1267
     19 C           2.8602   -0.1931    0.0000 C.ar    1  UNL1        0.3809
     20 C           5.6042   -1.7484    0.0000 C.ar    1  UNL1       -0.0468
     21 C           3.7459   -2.8405    0.0000 C.ar    1  UNL1        0.0229
     22 C           7.2882    3.3588    0.0000 C.3     1  UNL1       -0.0327
     23 C           5.6209   -2.8333    0.0000 C.ar    1  UNL1       -0.0194
     24 C           4.6855   -3.3830    0.0000 C.ar    1  UNL1        0.1204
     25 H           4.0797    3.1590    0.0000 H       1  UNL1        0.0691
     26 H           6.1351   -1.4281    0.0000 H       1  UNL1        0.0626
     27 H           3.2077   -3.1484    0.0000 H       1  UNL1        0.0691
     28 H           7.5961    2.8207    0.0000 H       1  UNL1        0.0280
     29 H           7.8263    3.6668    0.0000 H       1  UNL1        0.0280
     30 H           6.9803    3.8970    0.0000 H       1  UNL1        0.0280
     31 H           6.1614   -3.1370    0.0000 H       1  UNL1        0.0654
     32 H           7.8129    1.6144    0.0000 H       1  UNL1        0.2922
     33 H           4.9762    4.6909    0.0000 H       1  UNL1        0.2921
     34 H           5.2275   -4.6909    0.0000 H       1  UNL1        0.2921
@<TRIPOS>BOND
     1     1    12   ar
     2     1    13   ar
     3     2    15   ar
     4     2    19   ar
     5     3    14    1
     6     3    32    1
     7     4    11    2
     8     5    18    1
     9     5    33    1
    10     6    19    2
    11     7    24    1
    12     7    34    1
    13     8    10   ar
    14     8    11   ar
    15     8    13   ar
    16     9    11   ar
    17     9    12   ar
    18     9    14   ar
    19    10    15   ar
    20    10    20   ar
    21    12    17   ar
    22    13    19   ar
    23    14    16   ar
    24    15    21   ar
    25    16    18   ar
    26    16    22    1
    27    17    18   ar
    28    17    25    1
    29    20    23   ar
    30    20    26    1
    31    21    24   ar
    32    21    27    1
    33    22    28    1
    34    22    29    1
    35    22    30    1
    36    23    24   ar
    37    23    31    1
