@<TRIPOS>MOLECULE
IMPHY003102
 44 47 0 0 0
SMALL
GASTEIGER

@<TRIPOS>ATOM
      1 O          11.9282   -0.9903    0.0000 O.3     1  UNL1       -0.3566
      2 O           9.9435    2.3713    0.0000 O.co2   1  UNL1       -0.7749
      3 O           6.5555   -0.9959    0.0000 O.3     1  UNL1       -0.4605
      4 O           6.1072    0.6771    0.0000 O.2     1  UNL1       -0.2501
      5 O           3.6577   -1.7724    0.0000 O.3     1  UNL1       -0.3939
      6 N          10.0480    1.3767    0.0000 N.3     1  UNL1        0.2233
      7 C          11.2849   -0.2241    0.0000 C.3     1  UNL1        0.1330
      8 C          10.9429   -1.1638    0.0000 C.3     1  UNL1        0.1330
      9 C           9.3114    0.3941    0.0000 C.3     1  UNL1        0.0114
     10 C           9.5702   -0.5718    0.0000 C.3     1  UNL1        0.0114
     11 C           7.8798    0.1965    0.0000 C.3     1  UNL1        0.0301
     12 C           8.2985   -1.3664    0.0000 C.3     1  UNL1        0.0301
     13 C           7.5214   -0.7371    0.0000 C.3     1  UNL1        0.1134
     14 C          10.9616    1.7835    0.0000 C.3     1  UNL1       -0.0432
     15 C           5.8484   -0.2888    0.0000 C.2     1  UNL1        0.3171
     16 C           4.8824   -0.5476    0.0000 C.3     1  UNL1        0.1044
     17 C           4.6236   -1.5136    0.0000 C.3     1  UNL1        0.0612
     18 C           4.1753    0.1595    0.0000 C.ar    1  UNL1       -0.0315
     19 C           3.2094   -0.0994    0.0000 C.ar    1  UNL1       -0.0577
     20 C           4.4341    1.1254    0.0000 C.ar    1  UNL1       -0.0577
     21 C           2.5023    0.6077    0.0000 C.ar    1  UNL1       -0.0615
     22 C           3.7270    1.8325    0.0000 C.ar    1  UNL1       -0.0615
     23 C           2.7611    1.5737    0.0000 C.ar    1  UNL1       -0.0617
     24 H          11.4970    0.3585    0.0000 H       1  UNL1        0.0681
     25 H          10.7309   -1.7464    0.0000 H       1  UNL1        0.0681
     26 H           9.0914    1.2152    0.0000 H       1  UNL1        0.0878
     27 H           9.7902   -1.3928    0.0000 H       1  UNL1        0.0878
     28 H           7.2719    0.3188    0.0000 H       1  UNL1        0.0357
     29 H           7.8988    0.8162    0.0000 H       1  UNL1        0.0357
     30 H           8.6831   -1.8528    0.0000 H       1  UNL1        0.0357
     31 H           7.8576   -1.8023    0.0000 H       1  UNL1        0.0357
     32 H           7.1065   -0.2764    0.0000 H       1  UNL1        0.0738
     33 H          10.7094    2.3499    0.0000 H       1  UNL1        0.0777
     34 H          11.5280    2.0357    0.0000 H       1  UNL1        0.0777
     35 H          11.2137    1.2171    0.0000 H       1  UNL1        0.0777
     36 H           5.3208   -0.9861    0.0000 H       1  UNL1        0.0485
     37 H           5.2412   -1.5676    0.0000 H       1  UNL1        0.0568
     38 H           4.6776   -2.1312    0.0000 H       1  UNL1        0.0568
     39 H           3.0489   -0.6982    0.0000 H       1  UNL1        0.0621
     40 H           5.0330    1.2858    0.0000 H       1  UNL1        0.0621
     41 H           3.4972   -2.3713    0.0000 H       1  UNL1        0.2094
     42 H           1.9034    0.4473    0.0000 H       1  UNL1        0.0618
     43 H           3.8875    2.4314    0.0000 H       1  UNL1        0.0618
     44 H           2.3227    2.0121    0.0000 H       1  UNL1        0.0618
@<TRIPOS>UNITY_ATOM_ATTR
2 1
charge -1
6 1
charge 1
@<TRIPOS>BOND
     1     7     1    1
     2     8     1    1
     3     2     6    1
     4     3    13    1
     5     3    15    1
     6     4    15    2
     7     5    17    1
     8     5    41    1
     9     6     9    1
    10     6    10    1
    11     6    14    1
    12     7     8    1
    13     7     9    1
    14     7    24    1
    15     8    10    1
    16     8    25    1
    17     9    11    1
    18     9    26    1
    19    10    12    1
    20    10    27    1
    21    11    13    1
    22    11    28    1
    23    11    29    1
    24    12    13    1
    25    12    30    1
    26    12    31    1
    27    13    32    1
    28    14    33    1
    29    14    34    1
    30    14    35    1
    31    15    16    1
    32    16    17    1
    33    16    18    1
    34    16    36    1
    35    17    37    1
    36    17    38    1
    37    18    19   ar
    38    18    20   ar
    39    19    21   ar
    40    19    39    1
    41    20    22   ar
    42    20    40    1
    43    21    23   ar
    44    21    42    1
    45    22    23   ar
    46    22    43    1
    47    23    44    1
