@<TRIPOS>MOLECULE
IMPHY007832
 89 93 0 0 0
SMALL
GASTEIGER

@<TRIPOS>ATOM
      1 O           3.7320   -3.2456    0.0000 O.3     1  UNL1       -0.4610
      2 O           2.8602   -1.7490    0.0000 O.2     1  UNL1       -0.2512
      3 C           7.2622   -1.2214    0.0000 C.3     1  UNL1       -0.0194
      4 C           6.3961   -1.7214    0.0000 C.3     1  UNL1       -0.0192
      5 C           6.3959   -0.7210    0.0000 C.3     1  UNL1       -0.0401
      6 C           8.1282   -1.7214    0.0000 C.3     1  UNL1       -0.0289
      7 C           6.3961   -2.7214    0.0000 C.3     1  UNL1       -0.0263
      8 C           9.0382   -1.2146    0.0000 C.3     1  UNL1       -0.0231
      9 C           7.2461   -0.1799    0.0000 C.3     1  UNL1       -0.0460
     10 C           9.0462   -0.1730    0.0000 C.3     1  UNL1       -0.0233
     11 C           5.5022   -1.1868    0.0000 C.3     1  UNL1       -0.0432
     12 C           8.1282   -2.7214    0.0000 C.3     1  UNL1       -0.0489
     13 C           7.2622   -3.2214    0.0000 C.3     1  UNL1       -0.0488
     14 C           8.1441    0.3478    0.0000 C.3     1  UNL1       -0.0463
     15 C           5.5022   -3.2561    0.0000 C.3     1  UNL1        0.0055
     16 C          10.0342    0.1368    0.0000 C.3     1  UNL1       -0.0325
     17 C          10.0213   -1.5396    0.0000 C.3     1  UNL1       -0.0466
     18 C           4.5961   -1.7006    0.0000 C.3     1  UNL1       -0.0146
     19 C           4.5961   -2.7423    0.0000 C.3     1  UNL1        0.1084
     20 C          10.6357   -0.7061    0.0000 C.3     1  UNL1       -0.0489
     21 C           9.0305   -2.2146    0.0000 C.3     1  UNL1       -0.0588
     22 C           9.0539    0.8270    0.0000 C.3     1  UNL1       -0.0588
     23 C          10.3522    1.0849    0.0000 C.3     1  UNL1       -0.0405
     24 C           5.0122   -4.1279    0.0000 C.3     1  UNL1       -0.0562
     25 C           6.0122   -4.1163    0.0000 C.3     1  UNL1       -0.0562
     26 C          11.3323    1.2836    0.0000 C.3     1  UNL1       -0.0497
     27 C           9.6901    1.8343    0.0000 C.3     1  UNL1       -0.0621
     28 C          11.6503    2.2317    0.0000 C.3     1  UNL1       -0.0465
     29 C           2.8641   -2.7489    0.0000 C.2     1  UNL1        0.3042
     30 C          12.6303    2.4303    0.0000 C.3     1  UNL1       -0.0232
     31 C           2.0000   -3.2523    0.0000 C.3     1  UNL1        0.0332
     32 C          13.2924    1.6809    0.0000 C.3     1  UNL1       -0.0587
     33 C          12.9483    3.3784    0.0000 C.2     1  UNL1       -0.0769
     34 C          13.9284    3.5771    0.0000 C.3     1  UNL1       -0.0438
     35 C          12.2862    4.1279    0.0000 C.2     1  UNL1       -0.0995
     36 H           6.6080   -0.1384    0.0000 H       1  UNL1        0.0276
     37 H           5.7853   -0.6134    0.0000 H       1  UNL1        0.0276
     38 H           8.8610   -2.1521    0.0000 H       1  UNL1        0.0312
     39 H           6.4027   -3.5714    0.0000 H       1  UNL1        0.0313
     40 H           7.0281    0.4005    0.0000 H       1  UNL1        0.0271
     41 H           6.6370   -0.2954    0.0000 H       1  UNL1        0.0271
     42 H           5.9068   -0.7170    0.0000 H       1  UNL1        0.0272
     43 H           5.1086   -0.7078    0.0000 H       1  UNL1        0.0272
     44 H           8.3402   -3.3041    0.0000 H       1  UNL1        0.0268
     45 H           8.7388   -2.6138    0.0000 H       1  UNL1        0.0268
     46 H           6.8636   -3.6964    0.0000 H       1  UNL1        0.0268
     47 H           7.6607   -3.6964    0.0000 H       1  UNL1        0.0268
     48 H           8.5414    0.8238    0.0000 H       1  UNL1        0.0271
     49 H           7.7432    0.8207    0.0000 H       1  UNL1        0.0271
     50 H          10.8749    0.2622    0.0000 H       1  UNL1        0.0309
     51 H           9.7659   -2.1046    0.0000 H       1  UNL1        0.0271
     52 H          10.5563   -1.8530    0.0000 H       1  UNL1        0.0271
     53 H           4.3871   -1.1170    0.0000 H       1  UNL1        0.0301
     54 H           3.9853   -1.8067    0.0000 H       1  UNL1        0.0301
     55 H           4.0586   -2.4333    0.0000 H       1  UNL1        0.0739
     56 H          11.0933   -1.1244    0.0000 H       1  UNL1        0.0268
     57 H          11.0997   -0.2949    0.0000 H       1  UNL1        0.0268
     58 H           8.4105   -2.2098    0.0000 H       1  UNL1        0.0235
     59 H           9.0257   -2.8346    0.0000 H       1  UNL1        0.0235
     60 H           9.6505   -2.2194    0.0000 H       1  UNL1        0.0235
     61 H           9.6739    0.8222    0.0000 H       1  UNL1        0.0235
     62 H           9.0587    1.4470    0.0000 H       1  UNL1        0.0235
     63 H           8.4340    0.8317    0.0000 H       1  UNL1        0.0235
     64 H           9.7446    0.9617    0.0000 H       1  UNL1        0.0301
     65 H           4.4718   -3.8241    0.0000 H       1  UNL1        0.0236
     66 H           4.7085   -4.6684    0.0000 H       1  UNL1        0.0236
     67 H           5.5527   -4.4316    0.0000 H       1  UNL1        0.0236
     68 H           5.4789   -4.4325    0.0000 H       1  UNL1        0.0236
     69 H           6.3284   -4.6496    0.0000 H       1  UNL1        0.0236
     70 H           6.5455   -3.8001    0.0000 H       1  UNL1        0.0236
     71 H          11.3481    0.6638    0.0000 H       1  UNL1        0.0268
     72 H          11.9454    1.1915    0.0000 H       1  UNL1        0.0268
     73 H          10.1548    2.2448    0.0000 H       1  UNL1        0.0233
     74 H           9.2796    2.2990    0.0000 H       1  UNL1        0.0233
     75 H           9.2255    1.4238    0.0000 H       1  UNL1        0.0233
     76 H          11.6345    2.8515    0.0000 H       1  UNL1        0.0271
     77 H          11.0372    2.3238    0.0000 H       1  UNL1        0.0271
     78 H          13.2380    2.5535    0.0000 H       1  UNL1        0.0343
     79 H           1.6879   -2.7165    0.0000 H       1  UNL1        0.0342
     80 H           1.4643   -3.5644    0.0000 H       1  UNL1        0.0342
     81 H           2.3121   -3.7880    0.0000 H       1  UNL1        0.0342
     82 H          12.8278    1.2704    0.0000 H       1  UNL1        0.0235
     83 H          13.7029    1.2163    0.0000 H       1  UNL1        0.0235
     84 H          13.7571    2.0914    0.0000 H       1  UNL1        0.0235
     85 H          14.0516    2.9695    0.0000 H       1  UNL1        0.0274
     86 H          14.5360    3.7003    0.0000 H       1  UNL1        0.0274
     87 H          13.8052    4.1848    0.0000 H       1  UNL1        0.0274
     88 H          12.4834    4.7157    0.0000 H       1  UNL1        0.0534
     89 H          11.6786    4.0047    0.0000 H       1  UNL1        0.0534
@<TRIPOS>BOND
     1    19     1    1
     2     1    29    1
     3     2    29    2
     4     3     4    1
     5     3     5    1
     6     3     6    1
     7     3     9    1
     8     4     5    1
     9     4     7    1
    10     4    11    1
    11     5    36    1
    12     5    37    1
    13     6     8    1
    14     6    12    1
    15     6    38    1
    16     7    13    1
    17     7    15    1
    18     7    39    1
    19     8    10    1
    20     8    17    1
    21     8    21    1
    22     9    14    1
    23     9    40    1
    24     9    41    1
    25    10    14    1
    26    10    16    1
    27    10    22    1
    28    11    18    1
    29    11    42    1
    30    11    43    1
    31    12    13    1
    32    12    44    1
    33    12    45    1
    34    13    46    1
    35    13    47    1
    36    14    48    1
    37    14    49    1
    38    15    19    1
    39    15    24    1
    40    15    25    1
    41    16    20    1
    42    16    23    1
    43    16    50    1
    44    17    20    1
    45    17    51    1
    46    17    52    1
    47    18    19    1
    48    18    53    1
    49    18    54    1
    50    19    55    1
    51    20    56    1
    52    20    57    1
    53    21    58    1
    54    21    59    1
    55    21    60    1
    56    22    61    1
    57    22    62    1
    58    22    63    1
    59    23    26    1
    60    23    27    1
    61    23    64    1
    62    24    65    1
    63    24    66    1
    64    24    67    1
    65    25    68    1
    66    25    69    1
    67    25    70    1
    68    26    28    1
    69    26    71    1
    70    26    72    1
    71    27    73    1
    72    27    74    1
    73    27    75    1
    74    28    30    1
    75    28    76    1
    76    28    77    1
    77    29    31    1
    78    30    32    1
    79    30    33    1
    80    30    78    1
    81    31    79    1
    82    31    80    1
    83    31    81    1
    84    32    82    1
    85    32    83    1
    86    32    84    1
    87    33    34    1
    88    33    35    2
    89    34    85    1
    90    34    86    1
    91    34    87    1
    92    35    88    1
    93    35    89    1
