@<TRIPOS>MOLECULE
IMPHY014397
 100 102 0 0 0
SMALL
GASTEIGER

@<TRIPOS>ATOM
      1 O           5.4646   -4.7457    0.0000 O.3     1  UNL1       -0.3565
      2 O           2.0000   -5.7457    0.0000 O.3     1  UNL1       -0.3917
      3 O          22.1369    4.9146    0.0000 O.3     1  UNL1       -0.3917
      4 O          17.8320    5.0574    0.0000 O.2     1  UNL1       -0.2921
      5 C           4.5981   -4.2457    0.0000 C.3     1  UNL1        0.1224
      6 C           4.5981   -5.2457    0.0000 C.3     1  UNL1        0.1032
      7 C           3.7320   -3.7457    0.0000 C.3     1  UNL1        0.0029
      8 C           3.7320   -5.7457    0.0000 C.3     1  UNL1        0.0052
      9 C           2.8660   -4.2457    0.0000 C.3     1  UNL1       -0.0186
     10 C           2.8660   -5.2457    0.0000 C.3     1  UNL1        0.0585
     11 C           4.5981   -6.2457    0.0000 C.3     1  UNL1       -0.0326
     12 C           5.0981   -3.3796    0.0000 C.2     1  UNL1       -0.0491
     13 C           2.8660   -3.2457    0.0000 C.3     1  UNL1       -0.0567
     14 C           3.7320   -2.7457    0.0000 C.3     1  UNL1       -0.0567
     15 C           6.0981   -3.3796    0.0000 C.2     1  UNL1       -0.0600
     16 C          19.5981    5.4146    0.0000 C.3     1  UNL1       -0.0201
     17 C          19.5981    4.4146    0.0000 C.3     1  UNL1        0.0377
     18 C           6.5981   -2.5136    0.0000 C.2     1  UNL1       -0.0507
     19 C          20.5491    5.7236    0.0000 C.3     1  UNL1       -0.0208
     20 C          20.5491    4.1056    0.0000 C.3     1  UNL1       -0.0139
     21 C          21.1369    4.9146    0.0000 C.3     1  UNL1        0.0567
     22 C          19.2891    6.3657    0.0000 C.3     1  UNL1       -0.0588
     23 C          18.6584    5.7567    0.0000 C.3     1  UNL1       -0.0588
     24 C          19.2891    3.4635    0.0000 C.3     1  UNL1       -0.0519
     25 C          18.5981    4.4146    0.0000 C.2     1  UNL1        0.1625
     26 C           6.0981   -1.6476    0.0000 C.3     1  UNL1       -0.0397
     27 C           7.5981   -2.5136    0.0000 C.2     1  UNL1       -0.0588
     28 C          18.0981    3.5486    0.0000 C.2     1  UNL1       -0.0184
     29 C           8.0981   -1.6476    0.0000 C.2     1  UNL1       -0.0613
     30 C          17.0981    3.5486    0.0000 C.2     1  UNL1       -0.0555
     31 C           9.0981   -1.6476    0.0000 C.2     1  UNL1       -0.0588
     32 C          16.5981    2.6826    0.0000 C.2     1  UNL1       -0.0503
     33 C           9.5981   -0.7816    0.0000 C.2     1  UNL1       -0.0504
     34 C          17.0981    1.8165    0.0000 C.3     1  UNL1       -0.0397
     35 C          15.5981    2.6826    0.0000 C.2     1  UNL1       -0.0588
     36 C           9.0981    0.0845    0.0000 C.3     1  UNL1       -0.0397
     37 C          10.5981   -0.7816    0.0000 C.2     1  UNL1       -0.0588
     38 C          15.0981    1.8165    0.0000 C.2     1  UNL1       -0.0613
     39 C          11.0981    0.0845    0.0000 C.2     1  UNL1       -0.0615
     40 C          14.0981    1.8165    0.0000 C.2     1  UNL1       -0.0588
     41 C          12.0981    0.0845    0.0000 C.2     1  UNL1       -0.0615
     42 C          13.5981    0.9505    0.0000 C.2     1  UNL1       -0.0504
     43 C          12.5981    0.9505    0.0000 C.2     1  UNL1       -0.0588
     44 C          14.0981    0.0845    0.0000 C.3     1  UNL1       -0.0397
     45 H           3.3335   -6.2206    0.0000 H       1  UNL1        0.0319
     46 H           4.1306   -6.2206    0.0000 H       1  UNL1        0.0319
     47 H           2.6540   -3.6630    0.0000 H       1  UNL1        0.0296
     48 H           2.2554   -4.3533    0.0000 H       1  UNL1        0.0296
     49 H           2.8660   -5.8656    0.0000 H       1  UNL1        0.0594
     50 H           3.9781   -6.2457    0.0000 H       1  UNL1        0.0258
     51 H           4.5981   -6.8656    0.0000 H       1  UNL1        0.0258
     52 H           5.2181   -6.2457    0.0000 H       1  UNL1        0.0258
     53 H           4.7881   -2.8427    0.0000 H       1  UNL1        0.0602
     54 H           3.1760   -2.7087    0.0000 H       1  UNL1        0.0236
     55 H           2.3291   -2.9357    0.0000 H       1  UNL1        0.0236
     56 H           2.5560   -3.7826    0.0000 H       1  UNL1        0.0236
     57 H           4.3520   -2.7457    0.0000 H       1  UNL1        0.0236
     58 H           3.7320   -2.1257    0.0000 H       1  UNL1        0.0236
     59 H           3.1120   -2.7457    0.0000 H       1  UNL1        0.0236
     60 H           2.0000   -6.3657    0.0000 H       1  UNL1        0.2098
     61 H           6.4081   -3.9166    0.0000 H       1  UNL1        0.0618
     62 H          21.0861    6.0336    0.0000 H       1  UNL1        0.0295
     63 H          20.2970    6.2900    0.0000 H       1  UNL1        0.0295
     64 H          20.2970    3.5392    0.0000 H       1  UNL1        0.0300
     65 H          21.0861    3.7956    0.0000 H       1  UNL1        0.0300
     66 H          21.4184    5.4670    0.0000 H       1  UNL1        0.0594
     67 H          19.8787    6.5572    0.0000 H       1  UNL1        0.0235
     68 H          19.0975    6.9553    0.0000 H       1  UNL1        0.0235
     69 H          18.6994    6.1741    0.0000 H       1  UNL1        0.0235
     70 H          18.8705    6.3393    0.0000 H       1  UNL1        0.0235
     71 H          18.0758    5.9688    0.0000 H       1  UNL1        0.0235
     72 H          18.4463    5.1741    0.0000 H       1  UNL1        0.0235
     73 H          18.6994    3.6551    0.0000 H       1  UNL1        0.0239
     74 H          19.0975    2.8739    0.0000 H       1  UNL1        0.0239
     75 H          19.8787    3.2720    0.0000 H       1  UNL1        0.0239
     76 H           6.6350   -1.3376    0.0000 H       1  UNL1        0.0278
     77 H           5.7881   -1.1106    0.0000 H       1  UNL1        0.0278
     78 H           5.5611   -1.9576    0.0000 H       1  UNL1        0.0278
     79 H           7.9081   -3.0505    0.0000 H       1  UNL1        0.0620
     80 H          22.4469    4.3777    0.0000 H       1  UNL1        0.2098
     81 H          18.4081    3.0116    0.0000 H       1  UNL1        0.0653
     82 H           7.7881   -1.1106    0.0000 H       1  UNL1        0.0618
     83 H          16.7881    4.0855    0.0000 H       1  UNL1        0.0621
     84 H           9.4081   -2.1845    0.0000 H       1  UNL1        0.0620
     85 H          16.5611    1.5065    0.0000 H       1  UNL1        0.0278
     86 H          17.4081    1.2796    0.0000 H       1  UNL1        0.0278
     87 H          17.6350    2.1265    0.0000 H       1  UNL1        0.0278
     88 H          15.2881    3.2195    0.0000 H       1  UNL1        0.0620
     89 H           9.6350    0.3945    0.0000 H       1  UNL1        0.0278
     90 H           8.7881    0.6214    0.0000 H       1  UNL1        0.0278
     91 H           8.5611   -0.2255    0.0000 H       1  UNL1        0.0278
     92 H          10.9081   -1.3185    0.0000 H       1  UNL1        0.0620
     93 H          15.4081    1.2796    0.0000 H       1  UNL1        0.0618
     94 H          10.7881    0.6214    0.0000 H       1  UNL1        0.0618
     95 H          13.7881    2.3535    0.0000 H       1  UNL1        0.0620
     96 H          12.4081   -0.4525    0.0000 H       1  UNL1        0.0618
     97 H          12.2881    1.4874    0.0000 H       1  UNL1        0.0620
     98 H          13.5611   -0.2255    0.0000 H       1  UNL1        0.0278
     99 H          14.4081   -0.4525    0.0000 H       1  UNL1        0.0278
    100 H          14.6350    0.3945    0.0000 H       1  UNL1        0.0278
@<TRIPOS>BOND
     1     1     5    1
     2     1     6    1
     3    10     2    1
     4     2    60    1
     5    21     3    1
     6     3    80    1
     7     4    25    2
     8     5     6    1
     9     5     7    1
    10     5    12    1
    11     6     8    1
    12     6    11    1
    13     7     9    1
    14     7    13    1
    15     7    14    1
    16     8    10    1
    17     8    45    1
    18     8    46    1
    19     9    10    1
    20     9    47    1
    21     9    48    1
    22    10    49    1
    23    11    50    1
    24    11    51    1
    25    11    52    1
    26    12    15    2
    27    12    53    1
    28    13    54    1
    29    13    55    1
    30    13    56    1
    31    14    57    1
    32    14    58    1
    33    14    59    1
    34    15    18    1
    35    15    61    1
    36    16    17    1
    37    16    19    1
    38    16    22    1
    39    16    23    1
    40    17    20    1
    41    17    24    1
    42    17    25    1
    43    18    26    1
    44    18    27    2
    45    19    21    1
    46    19    62    1
    47    19    63    1
    48    20    21    1
    49    20    64    1
    50    20    65    1
    51    21    66    1
    52    22    67    1
    53    22    68    1
    54    22    69    1
    55    23    70    1
    56    23    71    1
    57    23    72    1
    58    24    73    1
    59    24    74    1
    60    24    75    1
    61    25    28    1
    62    26    76    1
    63    26    77    1
    64    26    78    1
    65    27    29    1
    66    27    79    1
    67    28    30    2
    68    28    81    1
    69    29    31    2
    70    29    82    1
    71    30    32    1
    72    30    83    1
    73    31    33    1
    74    31    84    1
    75    32    34    1
    76    32    35    2
    77    33    36    1
    78    33    37    2
    79    34    85    1
    80    34    86    1
    81    34    87    1
    82    35    38    1
    83    35    88    1
    84    36    89    1
    85    36    90    1
    86    36    91    1
    87    37    39    1
    88    37    92    1
    89    38    40    2
    90    38    93    1
    91    39    41    2
    92    39    94    1
    93    40    42    1
    94    40    95    1
    95    41    43    1
    96    41    96    1
    97    42    43    2
    98    42    44    1
    99    43    97    1
   100    44    98    1
   101    44    99    1
   102    44   100    1
