@<TRIPOS>MOLECULE
IMPHY013141
 51 55 0 0 0
SMALL
GASTEIGER

@<TRIPOS>ATOM
      1 O           4.9720   -1.5011    0.0000 O.3     1  UNL1       -0.3689
      2 O           8.5117   -0.3495    0.0000 O.3     1  UNL1       -0.3938
      3 O           7.6797    2.5328    0.0000 O.3     1  UNL1       -0.4674
      4 O           8.9277    1.3318    0.0000 O.2     1  UNL1       -0.2501
      5 N           6.5117   -0.4510    0.0000 N.3     1  UNL1       -0.2618
      6 N           4.2558   -0.8851    0.0000 N.ar    1  UNL1       -0.3544
      7 C           7.2636    0.8514    0.0000 C.3     1  UNL1        0.1130
      8 C           6.5117    0.4173    0.0000 C.3     1  UNL1        0.0361
      9 C           6.5117   -2.1875    0.0000 C.3     1  UNL1        0.0049
     10 C           5.7597   -0.8851    0.0000 C.3     1  UNL1        0.1621
     11 C           5.7597   -1.7534    0.0000 C.3     1  UNL1        0.0035
     12 C           5.7597    0.8514    0.0000 C.3     1  UNL1       -0.0084
     13 C           7.2636   -0.8851    0.0000 C.3     1  UNL1        0.0235
     14 C           7.2636   -1.7534    0.0000 C.2     1  UNL1       -0.0553
     15 C           5.0078   -0.4510    0.0000 C.ar    1  UNL1        0.0675
     16 C           5.0078    0.4173    0.0000 C.ar    1  UNL1       -0.0134
     17 C           8.2344    0.6113    0.0000 C.3     1  UNL1        0.0620
     18 C           7.9570    1.5720    0.0000 C.2     1  UNL1        0.3174
     19 C           3.5039    0.4173    0.0000 C.ar    1  UNL1        0.0033
     20 C           8.1297   -2.2534    0.0000 C.2     1  UNL1       -0.0863
     21 C           3.5039   -0.4510    0.0000 C.ar    1  UNL1        0.0470
     22 C           2.7520    0.8514    0.0000 C.ar    1  UNL1       -0.0523
     23 C           8.1297   -3.2534    0.0000 C.3     1  UNL1       -0.0465
     24 C           2.7520   -0.8851    0.0000 C.ar    1  UNL1       -0.0378
     25 C           2.0000    0.4173    0.0000 C.ar    1  UNL1       -0.0611
     26 C           8.3730    3.2534    0.0000 C.3     1  UNL1        0.0817
     27 C           2.0000   -0.4510    0.0000 C.ar    1  UNL1       -0.0598
     28 H           6.5117    1.2673    0.0000 H       1  UNL1        0.0478
     29 H           6.5117   -3.0375    0.0000 H       1  UNL1        0.0359
     30 H           5.1492   -1.6457    0.0000 H       1  UNL1        0.0316
     31 H           5.5477   -2.3360    0.0000 H       1  UNL1        0.0316
     32 H           6.1583    1.3264    0.0000 H       1  UNL1        0.0329
     33 H           5.3612    1.3264    0.0000 H       1  UNL1        0.0329
     34 H           7.8742   -0.9928    0.0000 H       1  UNL1        0.0474
     35 H           7.4757   -0.3025    0.0000 H       1  UNL1        0.0474
     36 H           8.8508    0.6772    0.0000 H       1  UNL1        0.0569
     37 H           8.2765    1.2298    0.0000 H       1  UNL1        0.0569
     38 H           5.0585   -2.1150    0.0000 H       1  UNL1        0.2122
     39 H           4.2558   -1.5051    0.0000 H       1  UNL1        0.1657
     40 H           8.6666   -1.9434    0.0000 H       1  UNL1        0.0569
     41 H           9.1136   -0.4984    0.0000 H       1  UNL1        0.2094
     42 H           2.7520    1.4714    0.0000 H       1  UNL1        0.0624
     43 H           7.5097   -3.2534    0.0000 H       1  UNL1        0.0272
     44 H           8.1297   -3.8734    0.0000 H       1  UNL1        0.0272
     45 H           8.7497   -3.2534    0.0000 H       1  UNL1        0.0272
     46 H           2.7520   -1.5051    0.0000 H       1  UNL1        0.0638
     47 H           1.4631    0.7273    0.0000 H       1  UNL1        0.0618
     48 H           8.8198    2.8235    0.0000 H       1  UNL1        0.0661
     49 H           8.8029    3.7001    0.0000 H       1  UNL1        0.0661
     50 H           7.9263    3.6833    0.0000 H       1  UNL1        0.0661
     51 H           1.4631   -0.7610    0.0000 H       1  UNL1        0.0618
@<TRIPOS>BOND
     1    10     1    1
     2     1    38    1
     3     2    17    1
     4     2    41    1
     5     3    18    1
     6     3    26    1
     7     4    18    2
     8     5     8    1
     9     5    10    1
    10     5    13    1
    11     6    15   ar
    12     6    21   ar
    13     6    39    1
    14     7     8    1
    15     7     9    1
    16     7    17    1
    17     7    18    1
    18     8    12    1
    19     8    28    1
    20     9    11    1
    21     9    14    1
    22     9    29    1
    23    10    11    1
    24    10    15    1
    25    11    30    1
    26    11    31    1
    27    12    16    1
    28    12    32    1
    29    12    33    1
    30    13    14    1
    31    13    34    1
    32    13    35    1
    33    14    20    2
    34    15    16   ar
    35    16    19   ar
    36    17    36    1
    37    17    37    1
    38    19    21   ar
    39    19    22   ar
    40    20    23    1
    41    20    40    1
    42    21    24   ar
    43    22    25   ar
    44    22    42    1
    45    23    43    1
    46    23    44    1
    47    23    45    1
    48    24    27   ar
    49    24    46    1
    50    25    27   ar
    51    25    47    1
    52    26    48    1
    53    26    49    1
    54    26    50    1
    55    27    51    1
