@<TRIPOS>MOLECULE
IMPHY006123
 72 77 0 0 0
SMALL
GASTEIGER

@<TRIPOS>ATOM
      1 O           6.3922    1.4060    0.0000 O.2     1  UNL1       -0.4544
      2 O           9.0824   -1.1395    0.0000 O.3     1  UNL1       -0.4906
      3 O           7.3114   -4.2907    0.0000 O.3     1  UNL1       -0.4911
      4 O           3.7460   -0.1358    0.0000 O.3     1  UNL1       -0.4944
      5 O           9.1147   -3.2309    0.0000 O.2     1  UNL1       -0.2801
      6 O           9.9102    3.4511    0.0000 O.3     1  UNL1       -0.5033
      7 O           8.1364    4.4753    0.0000 O.3     1  UNL1       -0.5032
      8 O           6.3886    3.3889    0.0000 O.3     1  UNL1       -0.4915
      9 O           2.0024   -3.1290    0.0000 O.3     1  UNL1       -0.5066
     10 O           4.6683    4.4089    0.0000 O.3     1  UNL1       -0.5033
     11 C           5.4822   -0.1008    0.0000 C.ar    1  UNL1        0.0082
     12 C           5.4742   -1.1424    0.0000 C.ar    1  UNL1        0.0006
     13 C           6.3762   -1.6632    0.0000 C.ar    1  UNL1       -0.0018
     14 C           7.2743   -1.1355    0.0000 C.ar    1  UNL1        0.0391
     15 C           7.2582   -0.0940    0.0000 C.ar    1  UNL1        0.0296
     16 C           6.3922    0.4060    0.0000 C.ar    1  UNL1        0.1403
     17 C           4.6220    0.4092    0.0000 C.3     1  UNL1        0.0018
     18 C           4.6062   -1.6391    0.0000 C.ar    1  UNL1        0.0250
     19 C           8.1243    0.4060    0.0000 C.ar    1  UNL1       -0.0396
     20 C           8.2262   -1.6561    0.0000 C.ar    1  UNL1        0.1786
     21 C           6.3679   -2.7482    0.0000 C.ar    1  UNL1       -0.0076
     22 C           8.1243    1.4060    0.0000 C.ar    1  UNL1        0.0216
     23 C           7.2582    1.9060    0.0000 C.ar    1  UNL1        0.1393
     24 C           4.6336    1.4091    0.0000 C.ar    1  UNL1       -0.0392
     25 C           7.3075   -3.2907    0.0000 C.ar    1  UNL1        0.1708
     26 C           8.2430   -2.7410    0.0000 C.ar    1  UNL1        0.2620
     27 C           3.7421   -1.1357    0.0000 C.ar    1  UNL1        0.1313
     28 C           4.6024   -2.6391    0.0000 C.ar    1  UNL1       -0.0471
     29 C           9.0343    1.9129    0.0000 C.ar    1  UNL1       -0.0059
     30 C           7.2422    2.9475    0.0000 C.ar    1  UNL1        0.0264
     31 C           5.5053    1.8990    0.0000 C.ar    1  UNL1       -0.0128
     32 C           3.7734    1.9191    0.0000 C.ar    1  UNL1       -0.0546
     33 C           2.8742   -1.6324    0.0000 C.ar    1  UNL1        0.0221
     34 C           9.0423    2.9545    0.0000 C.ar    1  UNL1        0.1590
     35 C           3.7344   -3.1357    0.0000 C.ar    1  UNL1       -0.0194
     36 C           8.1402    3.4753    0.0000 C.ar    1  UNL1        0.1618
     37 C           2.8703   -2.6324    0.0000 C.ar    1  UNL1        0.1204
     38 C           5.5169    2.8990    0.0000 C.ar    1  UNL1        0.1615
     39 C           3.7850    2.9190    0.0000 C.ar    1  UNL1       -0.0163
     40 C           4.6567    3.4090    0.0000 C.ar    1  UNL1        0.1585
     41 C           9.9580   -1.6227    0.0000 C.3     1  UNL1        0.0790
     42 C           8.1793   -4.7874    0.0000 C.3     1  UNL1        0.0790
     43 C           2.8819    0.3676    0.0000 C.3     1  UNL1        0.0788
     44 C           6.4002    4.3889    0.0000 C.3     1  UNL1        0.0790
     45 H           4.0127    0.5239    0.0000 H       1  UNL1        0.0363
     46 H           4.4032   -0.1710    0.0000 H       1  UNL1        0.0363
     47 H           8.6612    0.0960    0.0000 H       1  UNL1        0.0632
     48 H           5.8298   -3.0561    0.0000 H       1  UNL1        0.0662
     49 H           5.1381   -2.9511    0.0000 H       1  UNL1        0.0626
     50 H           9.5676    1.5967    0.0000 H       1  UNL1        0.0662
     51 H           6.7017    3.2513    0.0000 H       1  UNL1        0.0692
     52 H           6.0386    1.5829    0.0000 H       1  UNL1        0.0658
     53 H           3.2329    1.6153    0.0000 H       1  UNL1        0.0622
     54 H           2.3384   -1.3203    0.0000 H       1  UNL1        0.0691
     55 H           3.7320   -3.7557    0.0000 H       1  UNL1        0.0654
     56 H           3.2516    3.2352    0.0000 H       1  UNL1        0.0655
     57 H           9.6584   -2.1655    0.0000 H       1  UNL1        0.0660
     58 H          10.5008   -1.9223    0.0000 H       1  UNL1        0.0660
     59 H          10.2575   -1.0799    0.0000 H       1  UNL1        0.0660
     60 H           7.8714   -5.3255    0.0000 H       1  UNL1        0.0660
     61 H           8.7174   -5.0953    0.0000 H       1  UNL1        0.0660
     62 H           8.4872   -4.2492    0.0000 H       1  UNL1        0.0660
     63 H           3.1940    0.9033    0.0000 H       1  UNL1        0.0660
     64 H           2.3462    0.6796    0.0000 H       1  UNL1        0.0660
     65 H           2.5698   -0.1682    0.0000 H       1  UNL1        0.0660
     66 H          10.4460    3.1391    0.0000 H       1  UNL1        0.2923
     67 H           8.6721    4.7874    0.0000 H       1  UNL1        0.2923
     68 H           2.0000   -3.7490    0.0000 H       1  UNL1        0.2921
     69 H           4.1350    4.7251    0.0000 H       1  UNL1        0.2923
     70 H           7.0202    4.3817    0.0000 H       1  UNL1        0.0660
     71 H           6.4074    5.0088    0.0000 H       1  UNL1        0.0660
     72 H           5.7802    4.3960    0.0000 H       1  UNL1        0.0660
@<TRIPOS>BOND
     1     1    16   ar
     2     1    23   ar
     3     2    20    1
     4     2    41    1
     5     3    25    1
     6     3    42    1
     7     4    27    1
     8     4    43    1
     9     5    26    2
    10     6    34    1
    11     6    66    1
    12     7    36    1
    13     7    67    1
    14     8    38    1
    15     8    44    1
    16     9    37    1
    17     9    68    1
    18    10    40    1
    19    10    69    1
    20    11    12   ar
    21    11    16   ar
    22    11    17    1
    23    12    13   ar
    24    12    18    1
    25    13    14   ar
    26    13    21   ar
    27    14    15   ar
    28    14    20   ar
    29    15    16   ar
    30    15    19   ar
    31    17    24    1
    32    17    45    1
    33    17    46    1
    34    18    27   ar
    35    18    28   ar
    36    19    22   ar
    37    19    47    1
    38    20    26   ar
    39    21    25   ar
    40    21    48    1
    41    22    23   ar
    42    22    29   ar
    43    23    30   ar
    44    24    31   ar
    45    24    32   ar
    46    25    26   ar
    47    27    33   ar
    48    28    35   ar
    49    28    49    1
    50    29    34   ar
    51    29    50    1
    52    30    36   ar
    53    30    51    1
    54    31    38   ar
    55    31    52    1
    56    32    39   ar
    57    32    53    1
    58    33    37   ar
    59    33    54    1
    60    34    36   ar
    61    35    37   ar
    62    35    55    1
    63    38    40   ar
    64    39    40   ar
    65    39    56    1
    66    41    57    1
    67    41    58    1
    68    41    59    1
    69    42    60    1
    70    42    61    1
    71    42    62    1
    72    43    63    1
    73    43    64    1
    74    43    65    1
    75    44    70    1
    76    44    71    1
    77    44    72    1
