@<TRIPOS>MOLECULE
IMPHY011299
 23 23 0 0 0
SMALL
GASTEIGER

@<TRIPOS>ATOM
      1 O           5.1350   -0.8450    0.0000 O.3     1  UNL1       -0.3690
      2 O           4.2690    1.6550    0.0000 O.3     1  UNL1       -0.3865
      3 O           2.5369    0.6550    0.0000 O.3     1  UNL1       -0.3865
      4 O           2.5369   -1.3450    0.0000 O.3     1  UNL1       -0.3869
      5 O           6.8671    0.1550    0.0000 O.3     1  UNL1       -0.3924
      6 C           4.2690    0.6550    0.0000 C.3     1  UNL1        0.1117
      7 C           3.4030    0.1550    0.0000 C.3     1  UNL1        0.1115
      8 C           5.1350    0.1550    0.0000 C.3     1  UNL1        0.1100
      9 C           3.4030   -0.8450    0.0000 C.3     1  UNL1        0.1068
     10 C           4.2690   -1.3450    0.0000 C.3     1  UNL1        0.0767
     11 C           6.0010    0.6550    0.0000 C.3     1  UNL1        0.0729
     12 H           4.8059    0.9650    0.0000 H       1  UNL1        0.0647
     13 H           3.4030    0.7750    0.0000 H       1  UNL1        0.0647
     14 H           5.6720   -0.1550    0.0000 H       1  UNL1        0.0646
     15 H           3.4030   -1.4650    0.0000 H       1  UNL1        0.0643
     16 H           3.8705   -1.8200    0.0000 H       1  UNL1        0.0586
     17 H           4.6675   -1.8200    0.0000 H       1  UNL1        0.0586
     18 H           6.3996    1.1300    0.0000 H       1  UNL1        0.0584
     19 H           5.6025    1.1300    0.0000 H       1  UNL1        0.0584
     20 H           3.7320    1.9650    0.0000 H       1  UNL1        0.2100
     21 H           2.0000    0.3450    0.0000 H       1  UNL1        0.2100
     22 H           2.5369   -1.9650    0.0000 H       1  UNL1        0.2100
     23 H           7.4040    0.4650    0.0000 H       1  UNL1        0.2095
@<TRIPOS>BOND
     1     1     8    1
     2     1    10    1
     3     6     2    1
     4     2    20    1
     5     7     3    1
     6     3    21    1
     7     9     4    1
     8     4    22    1
     9     5    11    1
    10     5    23    1
    11     6     7    1
    12     6     8    1
    13     6    12    1
    14     7     9    1
    15     7    13    1
    16     8    11    1
    17     8    14    1
    18     9    10    1
    19     9    15    1
    20    10    16    1
    21    10    17    1
    22    11    18    1
    23    11    19    1
