@<TRIPOS>MOLECULE
IMPHY008514
 35 38 0 0 0
SMALL
GASTEIGER

@<TRIPOS>ATOM
      1 O          10.4786   -0.5374    0.0000 O.3     1  UNL1       -0.4526
      2 O          10.4786    1.0721    0.0000 O.3     1  UNL1       -0.4525
      3 O           6.0682   -2.2327    0.0000 O.2     1  UNL1       -0.4620
      4 O           6.9343    1.2673    0.0000 O.3     1  UNL1       -0.4944
      5 O           6.0682    0.7673    0.0000 O.2     1  UNL1       -0.2864
      6 O           2.5381   -2.2568    0.0000 O.3     1  UNL1       -0.5066
      7 C           7.8003   -0.2327    0.0000 C.ar    1  UNL1        0.0341
      8 C           6.9343   -0.7327    0.0000 C.ar    1  UNL1        0.0679
      9 C           9.5323   -0.2327    0.0000 C.ar    1  UNL1        0.1670
     10 C           7.8003    0.7673    0.0000 C.ar    1  UNL1        0.1317
     11 C           8.6663   -0.7327    0.0000 C.ar    1  UNL1       -0.0047
     12 C           9.5323    0.7673    0.0000 C.ar    1  UNL1        0.1697
     13 C           5.2022   -0.7327    0.0000 C.ar    1  UNL1        0.0648
     14 C           6.0682   -0.2327    0.0000 C.ar    1  UNL1        0.2003
     15 C           8.6663    1.2673    0.0000 C.ar    1  UNL1        0.0262
     16 C           5.2022   -1.7327    0.0000 C.ar    1  UNL1        0.1419
     17 C           6.9343   -1.7327    0.0000 C.ar    1  UNL1        0.1040
     18 C          11.0622    0.2673    0.0000 C.3     1  UNL1        0.2332
     19 C           4.3083   -0.1980    0.0000 C.ar    1  UNL1       -0.0439
     20 C           4.3083   -2.2673    0.0000 C.ar    1  UNL1        0.0228
     21 C           3.4022   -0.7119    0.0000 C.ar    1  UNL1       -0.0193
     22 C           3.4022   -1.7535    0.0000 C.ar    1  UNL1        0.1204
     23 C           6.9343    2.2673    0.0000 C.3     1  UNL1        0.0788
     24 H           8.6663   -1.3527    0.0000 H       1  UNL1        0.0663
     25 H           8.6663    1.8873    0.0000 H       1  UNL1        0.0692
     26 H           7.4712   -2.0427    0.0000 H       1  UNL1        0.1037
     27 H          11.5231   -0.1474    0.0000 H       1  UNL1        0.1166
     28 H          11.5231    0.6821    0.0000 H       1  UNL1        0.1166
     29 H           4.3154    0.4220    0.0000 H       1  UNL1        0.0627
     30 H           4.3154   -2.8873    0.0000 H       1  UNL1        0.0691
     31 H           2.8665   -0.3998    0.0000 H       1  UNL1        0.0654
     32 H           7.5543    2.2673    0.0000 H       1  UNL1        0.0660
     33 H           6.9343    2.8873    0.0000 H       1  UNL1        0.0660
     34 H           6.3143    2.2673    0.0000 H       1  UNL1        0.0660
     35 H           2.0000   -1.9489    0.0000 H       1  UNL1        0.2921
@<TRIPOS>BOND
     1     1     9    1
     2     1    18    1
     3     2    12    1
     4     2    18    1
     5     3    16   ar
     6     3    17   ar
     7     4    10    1
     8     4    23    1
     9     5    14    2
    10     6    22    1
    11     6    35    1
    12     7     8    1
    13     7    10   ar
    14     7    11   ar
    15     8    14   ar
    16     8    17   ar
    17     9    11   ar
    18     9    12   ar
    19    10    15   ar
    20    11    24    1
    21    12    15   ar
    22    13    14   ar
    23    13    16   ar
    24    13    19   ar
    25    15    25    1
    26    16    20   ar
    27    17    26    1
    28    18    27    1
    29    18    28    1
    30    19    21   ar
    31    19    29    1
    32    20    22   ar
    33    20    30    1
    34    21    22   ar
    35    21    31    1
    36    23    32    1
    37    23    33    1
    38    23    34    1
