@<TRIPOS>MOLECULE
IMPHY017115
 24 24 0 0 0
SMALL
GASTEIGER

@<TRIPOS>ATOM
      1 O           2.0000    0.4907    0.0000 O.2     1  UNL1       -0.2918
      2 C           3.7601    0.7694    0.0000 C.3     1  UNL1        0.0313
      3 C           4.5691    0.1816    0.0000 C.3     1  UNL1       -0.0192
      4 C           4.2601   -0.7694    0.0000 C.2     1  UNL1       -0.0655
      5 C           2.9511    0.1816    0.0000 C.2     1  UNL1        0.1648
      6 C           3.2601   -0.7694    0.0000 C.2     1  UNL1       -0.0085
      7 C           4.3479    1.5784    0.0000 C.3     1  UNL1       -0.0525
      8 C           3.1723    1.5784    0.0000 C.3     1  UNL1       -0.0525
      9 C           4.8479   -1.5784    0.0000 C.3     1  UNL1       -0.0431
     10 C           2.6723   -1.5784    0.0000 C.3     1  UNL1       -0.0364
     11 H           5.1355   -0.0705    0.0000 H       1  UNL1        0.0319
     12 H           4.8791    0.7186    0.0000 H       1  UNL1        0.0319
     13 H           4.8494    1.2140    0.0000 H       1  UNL1        0.0239
     14 H           4.7123    2.0800    0.0000 H       1  UNL1        0.0239
     15 H           3.8463    1.9429    0.0000 H       1  UNL1        0.0239
     16 H           3.6739    1.9429    0.0000 H       1  UNL1        0.0239
     17 H           2.8079    2.0800    0.0000 H       1  UNL1        0.0239
     18 H           2.6707    1.2140    0.0000 H       1  UNL1        0.0239
     19 H           4.3463   -1.9429    0.0000 H       1  UNL1        0.0275
     20 H           5.2123   -2.0800    0.0000 H       1  UNL1        0.0275
     21 H           5.3494   -1.2140    0.0000 H       1  UNL1        0.0275
     22 H           2.1707   -1.2140    0.0000 H       1  UNL1        0.0279
     23 H           2.3079   -2.0800    0.0000 H       1  UNL1        0.0279
     24 H           3.1739   -1.9429    0.0000 H       1  UNL1        0.0279
@<TRIPOS>BOND
     1     1     5    2
     2     2     3    1
     3     2     5    1
     4     2     7    1
     5     2     8    1
     6     3     4    1
     7     3    11    1
     8     3    12    1
     9     4     6    2
    10     4     9    1
    11     5     6    1
    12     6    10    1
    13     7    13    1
    14     7    14    1
    15     7    15    1
    16     8    16    1
    17     8    17    1
    18     8    18    1
    19     9    19    1
    20     9    20    1
    21     9    21    1
    22    10    22    1
    23    10    23    1
    24    10    24    1
