@<TRIPOS>MOLECULE
IMPHY010141
 21 24 0 0 0
SMALL
GASTEIGER

@<TRIPOS>ATOM
      1 N           8.9438   -1.9341    0.0000 N.ar    1  UNL1       -0.2938
      2 C           8.9438   -0.6484    0.0000 C.3     1  UNL1        0.1138
      3 C           7.8258    0.0000    0.0000 C.3     1  UNL1        0.0525
      4 C           6.7079   -0.6484    0.0000 C.ar    1  UNL1        0.0003
      5 C           6.7079   -1.9341    0.0000 C.ar    1  UNL1        0.0932
      6 N           5.5899   -2.5825    0.0000 N.ar    1  UNL1       -0.2441
      7 C           4.4719   -1.9341    0.0000 C.ar    1  UNL1        0.0841
      8 C           4.4719   -0.6484    0.0000 C.ar    1  UNL1        0.0154
      9 C           3.3539    0.0000    0.0000 C.ar    1  UNL1        0.0043
     10 C           2.2360   -0.6484    0.0000 C.ar    1  UNL1        0.0370
     11 C           2.2360   -1.9341    0.0000 C.ar    1  UNL1        0.1402
     12 C           3.3539   -2.5825    0.0000 C.ar    1  UNL1        0.0560
     13 C          10.0618   -2.5825    0.0000 C.ar    1  UNL1        0.2607
     14 C          10.0618   -3.8682    0.0000 C.ar    1  UNL1        0.0566
     15 C           8.9438   -4.5278    0.0000 C.ar    1  UNL1       -0.0156
     16 C           7.8258   -3.8682    0.0000 C.ar    1  UNL1        0.0147
     17 C           7.8258   -2.5825    0.0000 C.ar    1  UNL1        0.0795
     18 O           1.1180   -2.5825    0.0000 O.3     1  UNL1       -0.4714
     19 C           0.0000   -1.9341    0.0000 C.3     1  UNL1        0.2525
     20 O          11.1798   -1.9453    0.0000 O.2     1  UNL1       -0.2670
     21 C           8.9438   -5.8135    0.0000 C.3     1  UNL1        0.0312
@<TRIPOS>BOND
     1     1     2    1
     2     1    13   ar
     3     1    17   ar
     4     2     3    1
     5     3     4    1
     6     4     8   ar
     7     4     5   ar
     8     5     6   ar
     9     5    17    1
    10     6     7   ar
    11     7     8   ar
    12     7    12   ar
    13     8     9   ar
    14     9    10   ar
    15    10    11   ar
    16    11    12   ar
    17    11    18    1
    18    13    14   ar
    19    13    20    2
    20    14    15   ar
    21    15    16   ar
    22    15    21    1
    23    16    17   ar
    24    18    19    1
