@<TRIPOS>MOLECULE
IMPHY003494
 42 43 0 0 0
SMALL
GASTEIGER

@<TRIPOS>ATOM
      1 O           3.7320    0.3246    0.0000 O.3     1  UNL1       -0.4563
      2 O           6.3301   -1.1754    0.0000 O.2     1  UNL1       -0.2867
      3 O           8.0785   -1.2100    0.0000 O.3     1  UNL1       -0.5060
      4 O           6.3301    2.8246    0.0000 O.2     1  UNL1       -0.2871
      5 O           8.0785    2.8592    0.0000 O.3     1  UNL1       -0.5060
      6 O           2.8660   -1.1754    0.0000 O.2     1  UNL1       -0.2511
      7 C           4.5981   -0.1754    0.0000 C.3     1  UNL1        0.1351
      8 C           5.4641    0.3246    0.0000 C.2     1  UNL1        0.0440
      9 C           4.5981   -1.1754    0.0000 C.3     1  UNL1        0.0072
     10 C           7.1962    0.3246    0.0000 C.ar    1  UNL1        0.0777
     11 C           6.3301   -0.1754    0.0000 C.2     1  UNL1        0.1971
     12 C           7.1962    1.3246    0.0000 C.ar    1  UNL1        0.0773
     13 C           5.4641    1.3246    0.0000 C.2     1  UNL1       -0.0038
     14 C           6.3301    1.8246    0.0000 C.2     1  UNL1        0.1909
     15 C           3.7320   -1.6754    0.0000 C.2     1  UNL1       -0.0815
     16 C           8.0901   -0.2101    0.0000 C.ar    1  UNL1        0.1286
     17 C           8.0901    1.8593    0.0000 C.ar    1  UNL1        0.1286
     18 C           3.7320   -2.6754    0.0000 C.2     1  UNL1       -0.0795
     19 C           8.9962    0.3038    0.0000 C.ar    1  UNL1       -0.0160
     20 C           8.9962    1.3454    0.0000 C.ar    1  UNL1       -0.0160
     21 C           2.8660   -0.1754    0.0000 C.2     1  UNL1        0.3045
     22 C           2.8660   -3.1754    0.0000 C.3     1  UNL1       -0.0440
     23 C           4.5981   -3.1754    0.0000 C.3     1  UNL1       -0.0440
     24 C           2.0000    0.3246    0.0000 C.3     1  UNL1        0.0333
     25 H           4.5981    0.4446    0.0000 H       1  UNL1        0.0789
     26 H           4.8101   -1.7580    0.0000 H       1  UNL1        0.0347
     27 H           5.2087   -1.0677    0.0000 H       1  UNL1        0.0347
     28 H           4.9272    1.6346    0.0000 H       1  UNL1        0.0661
     29 H           3.1951   -1.3654    0.0000 H       1  UNL1        0.0573
     30 H           9.5319   -0.0083    0.0000 H       1  UNL1        0.0655
     31 H           9.5319    1.6575    0.0000 H       1  UNL1        0.0655
     32 H           4.2881   -3.7123    0.0000 H       1  UNL1        0.0274
     33 H           2.5560   -2.6385    0.0000 H       1  UNL1        0.0274
     34 H           2.3291   -3.4854    0.0000 H       1  UNL1        0.0274
     35 H           3.1760   -3.7123    0.0000 H       1  UNL1        0.0274
     36 H           5.1350   -3.4854    0.0000 H       1  UNL1        0.0274
     37 H           4.9081   -2.6385    0.0000 H       1  UNL1        0.0274
     38 H           8.6118   -1.5262    0.0000 H       1  UNL1        0.2922
     39 H           8.6118    3.1754    0.0000 H       1  UNL1        0.2922
     40 H           2.3100    0.8615    0.0000 H       1  UNL1        0.0342
     41 H           1.4631    0.6346    0.0000 H       1  UNL1        0.0342
     42 H           1.6900   -0.2123    0.0000 H       1  UNL1        0.0342
@<TRIPOS>BOND
     1     1     7    1
     2     1    21    1
     3     2    11    2
     4     3    16    1
     5     3    38    1
     6     4    14    2
     7     5    17    1
     8     5    39    1
     9     6    21    2
    10     7     8    1
    11     7     9    1
    12     7    25    1
    13     8    11    1
    14     8    13    2
    15     9    15    1
    16     9    26    1
    17     9    27    1
    18    10    11    1
    19    10    12   ar
    20    10    16   ar
    21    12    14    1
    22    12    17   ar
    23    13    14    1
    24    13    28    1
    25    15    18    2
    26    15    29    1
    27    16    19   ar
    28    17    20   ar
    29    18    22    1
    30    18    23    1
    31    19    20   ar
    32    19    30    1
    33    20    31    1
    34    21    24    1
    35    22    33    1
    36    22    34    1
    37    22    35    1
    38    23    32    1
    39    23    36    1
    40    23    37    1
    41    24    40    1
    42    24    41    1
    43    24    42    1
