@<TRIPOS>MOLECULE
IMPHY010696
 40 45 0 0 0
SMALL
GASTEIGER

@<TRIPOS>ATOM
      1 C           6.9432   -5.4326    0.0000 C.ar    1  UNL1        0.0064
      2 C           5.7904   -6.0951    0.0000 C.ar    1  UNL1        0.0063
      3 C           8.0959   -6.0951    0.0000 C.ar    1  UNL1        0.0781
      4 C           6.9432   -4.1076    0.0000 C.ar    1  UNL1        0.0034
      5 C           5.7904   -7.4334    0.0000 C.ar    1  UNL1        0.0371
      6 C           4.6376   -5.4326    0.0000 C.ar    1  UNL1        0.0401
      7 C           8.0959   -7.4334    0.0000 C.ar    1  UNL1        0.0616
      8 C           9.3547   -5.6844    0.0000 C.2     1  UNL1        0.3414
      9 C           8.0959   -3.4318    0.0000 C.ar    1  UNL1        0.0402
     10 C           5.7904   -3.4318    0.0000 C.ar    1  UNL1        0.0033
     11 C           6.9432   -8.0959    0.0000 C.ar    1  UNL1        0.1410
     12 C           4.6376   -8.0959    0.0000 C.ar    1  UNL1        0.0430
     13 C           3.4848   -6.0951    0.0000 C.ar    1  UNL1        0.1724
     14 C           9.3547   -7.8442    0.0000 C.3     1  UNL1        0.2386
     15 O          10.1365   -6.7577    0.0000 O.3     1  UNL1       -0.4403
     16 O           9.7655   -4.4256    0.0000 O.2     1  UNL1       -0.2449
     17 C           8.0959   -2.1068    0.0000 C.ar    1  UNL1        0.1764
     18 C           5.7904   -2.1068    0.0000 C.ar    1  UNL1        0.0402
     19 O           6.9432   -9.4210    0.0000 O.3     1  UNL1       -0.4508
     20 C           3.4848   -7.4334    0.0000 C.ar    1  UNL1        0.1725
     21 O           2.3321   -5.4326    0.0000 O.3     1  UNL1       -0.4684
     22 C           6.9432   -1.4443    0.0000 C.ar    1  UNL1        0.1764
     23 O           9.0765   -1.2190    0.0000 O.3     1  UNL1       -0.4346
     24 O           2.3321   -8.0959    0.0000 O.3     1  UNL1       -0.4684
     25 C           1.1793   -6.0951    0.0000 C.3     1  UNL1        0.2526
     26 O           7.2214   -0.1325    0.0000 O.3     1  UNL1       -0.4346
     27 C           8.5464    0.0000    0.0000 C.3     1  UNL1        0.4294
     28 C           1.1793   -7.4202    0.0000 C.3     1  UNL1        0.2526
     29 C           3.5113   -9.7522    0.0000 C.3     1  UNL1        0.1779
     30 O           4.5846   -8.9837    0.0000 O.3     1  UNL1       -0.3160
     31 C           3.9221  -11.0242    0.0000 C.3     1  UNL1        0.1782
     32 C           5.6579   -9.7655    0.0000 C.3     1  UNL1        0.3183
     33 C           5.2471  -11.0242    0.0000 C.3     1  UNL1        0.2146
     34 C           2.2260   -9.4077    0.0000 C.3     1  UNL1        0.1743
     35 O           1.2853  -10.3352    0.0000 O.3     1  UNL1       -0.3484
     36 C           0.0000   -9.9907    0.0000 C.3     1  UNL1        0.1742
     37 O           6.2011  -11.9650    0.0000 O.3     1  UNL1       -0.3447
     38 O           2.9813  -11.9650    0.0000 O.3     1  UNL1       -0.3483
     39 C           5.8566  -13.2503    0.0000 C.3     1  UNL1        0.1744
     40 C           3.3258  -13.2503    0.0000 C.3     1  UNL1        0.1742
@<TRIPOS>BOND
     1     1     2   ar
     2     1     3   ar
     3     1     4    1
     4     2     5   ar
     5     2     6   ar
     6     3     7   ar
     7     3     8    1
     8     4     9   ar
     9     4    10   ar
    10     5    11   ar
    11     5    12   ar
    12     6    13   ar
    13     7    14    1
    14     7    11   ar
    15     8    15    1
    16     8    16    2
    17     9    17   ar
    18    10    18   ar
    19    11    19    1
    20    12    20   ar
    21    13    21    1
    22    13    20   ar
    23    14    15    1
    24    17    22   ar
    25    17    23    1
    26    18    22   ar
    27    20    24    1
    28    21    25    1
    29    22    26    1
    30    23    27    1
    31    24    28    1
    32    26    27    1
    33    29    30    1
    34    29    31    1
    35    29    34    1
    36    30    32    1
    37    31    33    1
    38    31    38    1
    39    32    19    1
    40    32    33    1
    41    33    37    1
    42    34    35    1
    43    35    36    1
    44    37    39    1
    45    38    40    1
