@<TRIPOS>MOLECULE
IMPHY003493
 48 49 0 0 0
SMALL
GASTEIGER

@<TRIPOS>ATOM
      1 O           5.1350   -0.9050    0.0000 O.3     1  UNL1       -0.3404
      2 O           6.8671   -0.9050    0.0000 O.3     1  UNL1       -0.3093
      3 O           6.0010    0.5950    0.0000 O.2     1  UNL1       -0.4699
      4 O           6.8671   -2.9050    0.0000 O.3     1  UNL1       -0.3841
      5 O           5.1350   -3.9050    0.0000 O.3     1  UNL1       -0.3864
      6 O           3.4030   -2.9050    0.0000 O.3     1  UNL1       -0.3865
      7 O           2.5369   -1.4050    0.0000 O.3     1  UNL1       -0.3924
      8 O           6.0010    3.5950    0.0000 O.3     1  UNL1       -0.4773
      9 O           7.7331    3.5950    0.0000 O.2     1  UNL1       -0.2454
     10 O          10.3312    2.0950    0.0000 O.2     1  UNL1       -0.3010
     11 C           6.0010   -2.4050    0.0000 C.3     1  UNL1        0.1342
     12 C           5.1350   -2.9050    0.0000 C.3     1  UNL1        0.1141
     13 C           6.0010   -1.4050    0.0000 C.3     1  UNL1        0.1918
     14 C           4.2690   -2.4050    0.0000 C.3     1  UNL1        0.1119
     15 C           4.2690   -1.4050    0.0000 C.3     1  UNL1        0.1130
     16 C           7.7331    0.5950    0.0000 C.3     1  UNL1        0.0470
     17 C           6.8671    0.0950    0.0000 C.3     1  UNL1        0.2102
     18 C           7.7331    1.5950    0.0000 C.3     1  UNL1        0.0121
     19 C           3.4030   -0.9050    0.0000 C.3     1  UNL1        0.0730
     20 C           6.8671    2.0950    0.0000 C.2     1  UNL1        0.0748
     21 C           8.5991    2.0950    0.0000 C.3     1  UNL1        0.0106
     22 C           8.5991    0.0950    0.0000 C.2     1  UNL1       -0.0816
     23 C           6.0010    1.5950    0.0000 C.2     1  UNL1        0.0981
     24 C           6.8671    3.0950    0.0000 C.2     1  UNL1        0.3360
     25 C           9.4651    1.5950    0.0000 C.2     1  UNL1        0.1209
     26 C           8.5991   -0.9050    0.0000 C.2     1  UNL1       -0.1022
     27 H           6.0010   -3.0250    0.0000 H       1  UNL1        0.0671
     28 H           4.5981   -3.2150    0.0000 H       1  UNL1        0.0648
     29 H           6.0010   -0.7850    0.0000 H       1  UNL1        0.0939
     30 H           3.7320   -2.0950    0.0000 H       1  UNL1        0.0647
     31 H           4.2690   -0.7850    0.0000 H       1  UNL1        0.0647
     32 H           8.2700    0.9050    0.0000 H       1  UNL1        0.0410
     33 H           7.4040   -0.2150    0.0000 H       1  UNL1        0.1062
     34 H           7.7331    2.2150    0.0000 H       1  UNL1        0.0364
     35 H           3.8015   -0.4301    0.0000 H       1  UNL1        0.0584
     36 H           3.0044   -0.4301    0.0000 H       1  UNL1        0.0584
     37 H           8.9976    2.5700    0.0000 H       1  UNL1        0.0345
     38 H           8.2006    2.5700    0.0000 H       1  UNL1        0.0345
     39 H           9.1360    0.4050    0.0000 H       1  UNL1        0.0571
     40 H           5.4641    1.9050    0.0000 H       1  UNL1        0.1029
     41 H           6.8671   -3.5250    0.0000 H       1  UNL1        0.2101
     42 H           4.5981   -4.2150    0.0000 H       1  UNL1        0.2100
     43 H           3.4030   -3.5250    0.0000 H       1  UNL1        0.2100
     44 H           9.4651    0.9750    0.0000 H       1  UNL1        0.1026
     45 H           2.0000   -1.0950    0.0000 H       1  UNL1        0.2095
     46 H           8.0622   -1.2150    0.0000 H       1  UNL1        0.0532
     47 H           9.1360   -1.2150    0.0000 H       1  UNL1        0.0532
     48 H           6.0010    4.2150    0.0000 H       1  UNL1        0.2954
@<TRIPOS>BOND
     1     1    13    1
     2     1    15    1
     3    13     2    1
     4    17     2    1
     5     3    17    1
     6     3    23    1
     7    11     4    1
     8     4    41    1
     9    12     5    1
    10     5    42    1
    11    14     6    1
    12     6    43    1
    13     7    19    1
    14     7    45    1
    15     8    24    1
    16     8    48    1
    17     9    24    2
    18    10    25    2
    19    11    12    1
    20    11    13    1
    21    11    27    1
    22    12    14    1
    23    12    28    1
    24    13    29    1
    25    14    15    1
    26    14    30    1
    27    15    19    1
    28    15    31    1
    29    16    17    1
    30    16    18    1
    31    16    22    1
    32    16    32    1
    33    17    33    1
    34    18    20    1
    35    18    21    1
    36    18    34    1
    37    19    35    1
    38    19    36    1
    39    20    23    2
    40    20    24    1
    41    21    25    1
    42    21    37    1
    43    21    38    1
    44    22    26    2
    45    22    39    1
    46    23    40    1
    47    25    44    1
    48    26    46    1
    49    26    47    1
