@<TRIPOS>MOLECULE
IMPHY007543
 67 68 0 0 0
SMALL
GASTEIGER

@<TRIPOS>ATOM
      1 O           7.9497   -1.3450    0.0000 O.3     1  UNL1       -0.3405
      2 O           4.4381   -0.2517    0.0000 O.3     1  UNL1       -0.3457
      3 O           6.2177   -0.3450    0.0000 O.3     1  UNL1       -0.3460
      4 O           4.4769    2.3356    0.0000 O.3     1  UNL1       -0.3812
      5 O           5.9903    1.8186    0.0000 O.3     1  UNL1       -0.3837
      6 O           6.2177   -3.3450    0.0000 O.3     1  UNL1       -0.3865
      7 O           7.9497   -4.3450    0.0000 O.3     1  UNL1       -0.3864
      8 O           9.6818   -1.3450    0.0000 O.3     1  UNL1       -0.3446
      9 O           9.6818   -3.3450    0.0000 O.3     1  UNL1       -0.3841
     10 O           2.5369    1.3574    0.0000 O.3     1  UNL1       -0.3920
     11 C           4.2690    1.3574    0.0000 C.3     1  UNL1        0.1425
     12 C           7.0837   -1.8450    0.0000 C.3     1  UNL1        0.1134
     13 C           5.2471    1.1495    0.0000 C.3     1  UNL1        0.1387
     14 C           7.0837   -2.8450    0.0000 C.3     1  UNL1        0.1119
     15 C           5.3517    0.1550    0.0000 C.3     1  UNL1        0.1880
     16 C           7.9497   -3.3450    0.0000 C.3     1  UNL1        0.1141
     17 C           8.8158   -2.8450    0.0000 C.3     1  UNL1        0.1341
     18 C           3.7690    0.4914    0.0000 C.3     1  UNL1        0.0843
     19 C           6.2177   -1.3450    0.0000 C.3     1  UNL1        0.0796
     20 C           8.8158   -1.8450    0.0000 C.3     1  UNL1        0.1882
     21 C           3.4030    1.8574    0.0000 C.3     1  UNL1        0.0778
     22 C           9.6818   -0.3450    0.0000 C.3     1  UNL1        0.0692
     23 C          10.5478    0.1550    0.0000 C.2     1  UNL1       -0.0596
     24 C          10.5478    1.1550    0.0000 C.2     1  UNL1       -0.0741
     25 C           9.6818    1.6550    0.0000 C.3     1  UNL1       -0.0285
     26 C          11.4138    1.6550    0.0000 C.3     1  UNL1       -0.0437
     27 C           9.6818    2.6550    0.0000 C.3     1  UNL1       -0.0308
     28 C          10.5478    3.1550    0.0000 C.2     1  UNL1       -0.0850
     29 C          10.5478    4.1550    0.0000 C.2     1  UNL1       -0.0796
     30 C          11.4138    4.6550    0.0000 C.3     1  UNL1       -0.0440
     31 C           9.6818    4.6550    0.0000 C.3     1  UNL1       -0.0440
     32 H           7.0837   -1.2250    0.0000 H       1  UNL1        0.0647
     33 H           5.0867    1.7484    0.0000 H       1  UNL1        0.0675
     34 H           7.0837   -3.4650    0.0000 H       1  UNL1        0.0647
     35 H           5.3192   -0.4642    0.0000 H       1  UNL1        0.0937
     36 H           7.4128   -3.6550    0.0000 H       1  UNL1        0.0648
     37 H           8.8158   -3.4650    0.0000 H       1  UNL1        0.0671
     38 H           3.2674    0.8558    0.0000 H       1  UNL1        0.0591
     39 H           3.3541    0.0307    0.0000 H       1  UNL1        0.0591
     40 H           5.6071   -1.2373    0.0000 H       1  UNL1        0.0587
     41 H           6.0056   -1.9276    0.0000 H       1  UNL1        0.0587
     42 H           9.3527   -2.1550    0.0000 H       1  UNL1        0.0938
     43 H           3.8015    2.3324    0.0000 H       1  UNL1        0.0587
     44 H           3.0044    2.3324    0.0000 H       1  UNL1        0.0587
     45 H           4.0162    2.7504    0.0000 H       1  UNL1        0.2105
     46 H           6.5799    1.6271    0.0000 H       1  UNL1        0.2101
     47 H           5.6808   -3.0350    0.0000 H       1  UNL1        0.2100
     48 H           7.4128   -4.6550    0.0000 H       1  UNL1        0.2100
     49 H          10.2187   -3.0350    0.0000 H       1  UNL1        0.2101
     50 H           9.4697    0.2376    0.0000 H       1  UNL1        0.0605
     51 H           9.0712   -0.4527    0.0000 H       1  UNL1        0.0605
     52 H           2.0000    1.6674    0.0000 H       1  UNL1        0.2095
     53 H          11.0848   -0.1550    0.0000 H       1  UNL1        0.0594
     54 H           9.0712    1.7627    0.0000 H       1  UNL1        0.0313
     55 H           9.4697    1.0724    0.0000 H       1  UNL1        0.0313
     56 H          11.7238    1.1181    0.0000 H       1  UNL1        0.0274
     57 H          11.9508    1.9650    0.0000 H       1  UNL1        0.0274
     58 H          11.1038    2.1919    0.0000 H       1  UNL1        0.0274
     59 H           9.4697    3.2376    0.0000 H       1  UNL1        0.0310
     60 H           9.0712    2.5473    0.0000 H       1  UNL1        0.0310
     61 H          11.0848    2.8450    0.0000 H       1  UNL1        0.0572
     62 H           9.9918    5.1919    0.0000 H       1  UNL1        0.0274
     63 H           9.1448    4.9650    0.0000 H       1  UNL1        0.0274
     64 H          11.7238    4.1181    0.0000 H       1  UNL1        0.0274
     65 H          11.9508    4.9650    0.0000 H       1  UNL1        0.0274
     66 H          11.1038    5.1919    0.0000 H       1  UNL1        0.0274
     67 H           9.3718    4.1181    0.0000 H       1  UNL1        0.0274
@<TRIPOS>BOND
     1     1    12    1
     2     1    20    1
     3     2    15    1
     4     2    18    1
     5     3    15    1
     6     3    19    1
     7     4    11    1
     8     4    45    1
     9     5    13    1
    10     5    46    1
    11     6    14    1
    12     6    47    1
    13     7    16    1
    14     7    48    1
    15     8    20    1
    16     8    22    1
    17     9    17    1
    18     9    49    1
    19    10    21    1
    20    10    52    1
    21    11    13    1
    22    11    18    1
    23    11    21    1
    24    12    14    1
    25    12    19    1
    26    12    32    1
    27    13    15    1
    28    13    33    1
    29    14    16    1
    30    14    34    1
    31    15    35    1
    32    16    17    1
    33    16    36    1
    34    17    20    1
    35    17    37    1
    36    18    38    1
    37    18    39    1
    38    19    40    1
    39    19    41    1
    40    20    42    1
    41    21    43    1
    42    21    44    1
    43    22    23    1
    44    22    50    1
    45    22    51    1
    46    23    24    2
    47    23    53    1
    48    24    25    1
    49    24    26    1
    50    25    27    1
    51    25    54    1
    52    25    55    1
    53    26    56    1
    54    26    57    1
    55    26    58    1
    56    27    28    1
    57    27    59    1
    58    27    60    1
    59    28    29    2
    60    28    61    1
    61    29    30    1
    62    29    31    1
    63    30    64    1
    64    30    65    1
    65    30    66    1
    66    31    62    1
    67    31    63    1
    68    31    67    1
