@<TRIPOS>MOLECULE
IMPHY016733
 19 18 0 0 0
SMALL
GASTEIGER

@<TRIPOS>ATOM
      1 O           2.8660    0.4400    0.0000 O.3     1  UNL1       -0.4649
      2 O           3.7320   -1.0600    0.0000 O.2     1  UNL1       -0.2456
      3 C           6.3301    0.4400    0.0000 C.2     1  UNL1       -0.0657
      4 C           5.4641   -0.0600    0.0000 C.2     1  UNL1       -0.0553
      5 C           7.1962   -0.0600    0.0000 C.2     1  UNL1       -0.0871
      6 C           4.5981    0.4400    0.0000 C.2     1  UNL1        0.0225
      7 C           8.0622    0.4400    0.0000 C.3     1  UNL1       -0.0465
      8 C           3.7320   -0.0600    0.0000 C.2     1  UNL1        0.3317
      9 C           2.0000   -0.0600    0.0000 C.3     1  UNL1        0.0820
     10 H           6.3301    1.0600    0.0000 H       1  UNL1        0.0614
     11 H           5.4641   -0.6800    0.0000 H       1  UNL1        0.0620
     12 H           7.1962   -0.6800    0.0000 H       1  UNL1        0.0569
     13 H           4.5981    1.0600    0.0000 H       1  UNL1        0.0689
     14 H           8.3722   -0.0969    0.0000 H       1  UNL1        0.0272
     15 H           8.5991    0.7500    0.0000 H       1  UNL1        0.0272
     16 H           7.7522    0.9769    0.0000 H       1  UNL1        0.0272
     17 H           1.6900    0.4769    0.0000 H       1  UNL1        0.0661
     18 H           1.4631   -0.3700    0.0000 H       1  UNL1        0.0661
     19 H           2.3100   -0.5969    0.0000 H       1  UNL1        0.0661
@<TRIPOS>BOND
     1     1     8    1
     2     1     9    1
     3     2     8    2
     4     3     4    1
     5     3     5    2
     6     3    10    1
     7     4     6    2
     8     4    11    1
     9     5     7    1
    10     5    12    1
    11     6     8    1
    12     6    13    1
    13     7    14    1
    14     7    15    1
    15     7    16    1
    16     9    17    1
    17     9    18    1
    18     9    19    1
