@<TRIPOS>MOLECULE
IMPHY011134
 140 147 0 0 0
SMALL
GASTEIGER

@<TRIPOS>ATOM
      1 O           6.8671   -6.1933    0.0000 O.3     1  UNL1       -0.3449
      2 O           9.6611    1.2325    0.0000 O.3     1  UNL1       -0.3906
      3 O           9.3929    2.1874    0.0000 O.3     1  UNL1       -0.4318
      4 O           8.0533    3.2853    0.0000 O.2     1  UNL1       -0.2500
      5 O           5.1350   -6.1933    0.0000 O.3     1  UNL1       -0.3315
      6 O          11.0135    2.7986    0.0000 O.3     1  UNL1       -0.3368
      7 O           6.8671   -8.1933    0.0000 O.3     1  UNL1       -0.3841
      8 O           5.1350   -9.1933    0.0000 O.3     1  UNL1       -0.3864
      9 O           8.6872    4.0587    0.0000 O.3     1  UNL1       -0.3829
     10 O           3.4030   -8.1933    0.0000 O.3     1  UNL1       -0.3860
     11 O           9.9549    5.6056    0.0000 O.3     1  UNL1       -0.3400
     12 O          11.9284    5.2811    0.0000 O.3     1  UNL1       -0.3868
     13 O           2.5369   -6.6933    0.0000 O.3     1  UNL1       -0.4788
     14 O           3.4030   -5.1933    0.0000 O.2     1  UNL1       -0.2480
     15 O          11.5756    6.2168    0.0000 O.3     1  UNL1       -0.3405
     16 O           9.2492    7.4769    0.0000 O.3     1  UNL1       -0.3841
     17 O          10.5170    9.0238    0.0000 O.3     1  UNL1       -0.3864
     18 O          12.4905    8.6993    0.0000 O.3     1  UNL1       -0.3865
     19 O          13.5491    5.8923    0.0000 O.3     1  UNL1       -0.3924
     20 C           7.7681   -1.4931    0.0000 C.3     1  UNL1       -0.0193
     21 C           6.9040   -1.9964    0.0000 C.3     1  UNL1       -0.0257
     22 C           6.8920   -3.0380    0.0000 C.3     1  UNL1       -0.0250
     23 C           7.7643   -0.4931    0.0000 C.3     1  UNL1       -0.0028
     24 C           7.7920   -3.5623    0.0000 C.3     1  UNL1       -0.0278
     25 C           8.6801   -1.9964    0.0000 C.3     1  UNL1       -0.0463
     26 C           8.6921   -3.0380    0.0000 C.3     1  UNL1       -0.0486
     27 C           6.8963    0.0036    0.0000 C.2     1  UNL1       -0.0627
     28 C           7.8046   -4.6472    0.0000 C.3     1  UNL1       -0.0052
     29 C           6.8762    1.0450    0.0000 C.3     1  UNL1       -0.0007
     30 C           6.0361   -1.4998    0.0000 C.3     1  UNL1       -0.0306
     31 C           5.9421   -3.5623    0.0000 C.3     1  UNL1       -0.0447
     32 C           8.6723    0.0173    0.0000 C.3     1  UNL1       -0.0162
     33 C           7.7722    1.5762    0.0000 C.3     1  UNL1        0.1000
     34 C           8.6763    1.0589    0.0000 C.3     1  UNL1        0.0723
     35 C           8.7522   -1.3156    0.0000 C.3     1  UNL1       -0.0585
     36 C           6.8671   -5.1933    0.0000 C.3     1  UNL1        0.0672
     37 C           6.0322   -0.4998    0.0000 C.2     1  UNL1       -0.0836
     38 C           6.0279   -2.5346    0.0000 C.3     1  UNL1       -0.0590
     39 C           5.9295   -4.6472    0.0000 C.3     1  UNL1       -0.0255
     40 C           8.7497   -0.6630    0.0000 C.3     1  UNL1       -0.0552
     41 C           5.9223    1.5620    0.0000 C.3     1  UNL1       -0.0402
     42 C           7.7764    2.6612    0.0000 C.3     1  UNL1       -0.0338
     43 C           5.9014    2.6467    0.0000 C.3     1  UNL1       -0.0343
     44 C           8.8046   -4.6395    0.0000 C.3     1  UNL1       -0.0572
     45 C           8.3113   -5.5093    0.0000 C.3     1  UNL1       -0.0572
     46 C           6.8347    3.2001    0.0000 C.3     1  UNL1       -0.0467
     47 C           8.4061    2.3496    0.0000 C.2     1  UNL1        0.3186
     48 C           5.3881    3.5050    0.0000 C.3     1  UNL1       -0.0598
     49 C           4.9015    2.6313    0.0000 C.3     1  UNL1       -0.0598
     50 C           6.0010   -6.6933    0.0000 C.3     1  UNL1        0.1888
     51 C           6.0010   -7.6933    0.0000 C.3     1  UNL1        0.1341
     52 C          10.0268    2.9608    0.0000 C.3     1  UNL1        0.2334
     53 C           5.1350   -8.1933    0.0000 C.3     1  UNL1        0.1145
     54 C           4.2690   -6.6933    0.0000 C.3     1  UNL1        0.1859
     55 C           9.6739    3.8965    0.0000 C.3     1  UNL1        0.1459
     56 C           4.2690   -7.6933    0.0000 C.3     1  UNL1        0.1201
     57 C          10.3078    4.6699    0.0000 C.3     1  UNL1        0.1213
     58 C          11.6474    3.5720    0.0000 C.3     1  UNL1        0.0802
     59 C          11.2945    4.5077    0.0000 C.3     1  UNL1        0.1074
     60 C           3.4030   -6.1933    0.0000 C.2     1  UNL1        0.3367
     61 C          10.5888    6.3790    0.0000 C.3     1  UNL1        0.1884
     62 C          10.2360    7.3147    0.0000 C.3     1  UNL1        0.1341
     63 C          10.8698    8.0881    0.0000 C.3     1  UNL1        0.1141
     64 C          12.2095    6.9902    0.0000 C.3     1  UNL1        0.1130
     65 C          11.8566    7.9259    0.0000 C.3     1  UNL1        0.1119
     66 C          13.1962    6.8279    0.0000 C.3     1  UNL1        0.0730
     67 H           7.6385   -2.4243    0.0000 H       1  UNL1        0.0315
     68 H           8.5314   -3.9816    0.0000 H       1  UNL1        0.0312
     69 H           9.2921   -2.0954    0.0000 H       1  UNL1        0.0271
     70 H           8.8824   -1.4104    0.0000 H       1  UNL1        0.0271
     71 H           8.9079   -3.6192    0.0000 H       1  UNL1        0.0268
     72 H           9.3017   -2.9248    0.0000 H       1  UNL1        0.0268
     73 H           6.1502    0.6031    0.0000 H       1  UNL1        0.0357
     74 H           5.4251   -1.3945    0.0000 H       1  UNL1        0.0310
     75 H           5.8263   -2.0832    0.0000 H       1  UNL1        0.0310
     76 H           5.7398   -2.9762    0.0000 H       1  UNL1        0.0271
     77 H           5.3300   -3.6613    0.0000 H       1  UNL1        0.0271
     78 H           8.8791   -0.5672    0.0000 H       1  UNL1        0.0299
     79 H           9.2836    0.1210    0.0000 H       1  UNL1        0.0299
     80 H           8.7828    1.6697    0.0000 H       1  UNL1        0.0605
     81 H           8.8623   -1.9258    0.0000 H       1  UNL1        0.0235
     82 H           9.3624   -1.2056    0.0000 H       1  UNL1        0.0235
     83 H           8.6422   -0.7055    0.0000 H       1  UNL1        0.0235
     84 H           7.4046   -5.5023    0.0000 H       1  UNL1        0.0602
     85 H           5.4941   -0.1918    0.0000 H       1  UNL1        0.0572
     86 H           6.3400   -1.9989    0.0000 H       1  UNL1        0.0235
     87 H           5.4922   -2.2226    0.0000 H       1  UNL1        0.0235
     88 H           5.7158   -3.0704    0.0000 H       1  UNL1        0.0235
     89 H           5.3199   -4.5340    0.0000 H       1  UNL1        0.0290
     90 H           5.7137   -5.2284    0.0000 H       1  UNL1        0.0290
     91 H           8.6444   -1.2739    0.0000 H       1  UNL1        0.0238
     92 H           9.3607   -0.7683    0.0000 H       1  UNL1        0.0238
     93 H           8.8550   -0.0520    0.0000 H       1  UNL1        0.0238
     94 H           5.3095    1.6562    0.0000 H       1  UNL1        0.0276
     95 H           5.7246    0.9743    0.0000 H       1  UNL1        0.0276
     96 H           8.3869    2.5528    0.0000 H       1  UNL1        0.0277
     97 H           7.9877    3.2441    0.0000 H       1  UNL1        0.0277
     98 H           7.7767   -5.8235    0.0000 H       1  UNL1        0.0236
     99 H           8.6254   -6.0439    0.0000 H       1  UNL1        0.0236
    100 H           8.8458   -5.1952    0.0000 H       1  UNL1        0.0236
    101 H           8.8094   -5.2595    0.0000 H       1  UNL1        0.0236
    102 H           9.4246   -4.6347    0.0000 H       1  UNL1        0.0236
    103 H           8.7998   -4.0195    0.0000 H       1  UNL1        0.0236
    104 H           7.2302    3.6776    0.0000 H       1  UNL1        0.0271
    105 H           6.4319    3.6714    0.0000 H       1  UNL1        0.0271
    106 H          10.0597    0.7576    0.0000 H       1  UNL1        0.2098
    107 H           5.9202    3.8232    0.0000 H       1  UNL1        0.0235
    108 H           5.0699    4.0370    0.0000 H       1  UNL1        0.0235
    109 H           4.8560    3.1867    0.0000 H       1  UNL1        0.0235
    110 H           4.8920    3.2513    0.0000 H       1  UNL1        0.0235
    111 H           4.2816    2.6218    0.0000 H       1  UNL1        0.0235
    112 H           4.9111    2.0114    0.0000 H       1  UNL1        0.0235
    113 H           6.0010   -6.0733    0.0000 H       1  UNL1        0.0938
    114 H           6.0010   -8.3133    0.0000 H       1  UNL1        0.0671
    115 H          10.2455    2.3807    0.0000 H       1  UNL1        0.1085
    116 H           4.5981   -8.5033    0.0000 H       1  UNL1        0.0648
    117 H           4.2690   -6.0733    0.0000 H       1  UNL1        0.0741
    118 H           9.2809    3.4170    0.0000 H       1  UNL1        0.0683
    119 H           3.7320   -7.3833    0.0000 H       1  UNL1        0.0652
    120 H           7.4040   -7.8833    0.0000 H       1  UNL1        0.2101
    121 H          10.7008    5.1494    0.0000 H       1  UNL1        0.0652
    122 H          12.0514    3.1017    0.0000 H       1  UNL1        0.0588
    123 H          12.1807    3.8882    0.0000 H       1  UNL1        0.0588
    124 H          11.9063    4.4071    0.0000 H       1  UNL1        0.0643
    125 H           5.6720   -9.5033    0.0000 H       1  UNL1        0.2100
    126 H           8.4684    4.6388    0.0000 H       1  UNL1        0.2102
    127 H           3.4030   -8.8133    0.0000 H       1  UNL1        0.2100
    128 H          12.5402    5.1805    0.0000 H       1  UNL1        0.2100
    129 H           9.9770    6.4796    0.0000 H       1  UNL1        0.0938
    130 H           2.0000   -6.3833    0.0000 H       1  UNL1        0.2951
    131 H          10.0172    7.8948    0.0000 H       1  UNL1        0.0671
    132 H          11.2628    8.5676    0.0000 H       1  UNL1        0.0648
    133 H          12.4282    6.4101    0.0000 H       1  UNL1        0.0647
    134 H          12.4684    7.8253    0.0000 H       1  UNL1        0.0647
    135 H           9.0304    8.0571    0.0000 H       1  UNL1        0.2101
    136 H          13.8055    6.9427    0.0000 H       1  UNL1        0.0584
    137 H          13.1890    7.4479    0.0000 H       1  UNL1        0.0584
    138 H          10.9100    9.5033    0.0000 H       1  UNL1        0.2100
    139 H          13.1023    8.5987    0.0000 H       1  UNL1        0.2100
    140 H          14.1608    5.7917    0.0000 H       1  UNL1        0.2095
@<TRIPOS>BOND
     1    36     1    1
     2    50     1    1
     3    34     2    1
     4     2   106    1
     5     3    47    1
     6    52     3    1
     7     4    47    2
     8     5    50    1
     9     5    54    1
    10     6    52    1
    11     6    58    1
    12    51     7    1
    13     7   120    1
    14    53     8    1
    15     8   125    1
    16    55     9    1
    17     9   126    1
    18    56    10    1
    19    10   127    1
    20    57    11    1
    21    61    11    1
    22    59    12    1
    23    12   128    1
    24    13    60    1
    25    13   130    1
    26    14    60    2
    27    15    61    1
    28    15    64    1
    29    62    16    1
    30    16   135    1
    31    63    17    1
    32    17   138    1
    33    65    18    1
    34    18   139    1
    35    19    66    1
    36    19   140    1
    37    20    21    1
    38    20    23    1
    39    20    25    1
    40    20    35    1
    41    21    22    1
    42    21    30    1
    43    21    67    1
    44    22    24    1
    45    22    31    1
    46    22    38    1
    47    23    27    1
    48    23    32    1
    49    23    40    1
    50    24    26    1
    51    24    28    1
    52    24    68    1
    53    25    26    1
    54    25    69    1
    55    25    70    1
    56    26    71    1
    57    26    72    1
    58    27    29    1
    59    27    37    2
    60    28    36    1
    61    28    44    1
    62    28    45    1
    63    29    33    1
    64    29    41    1
    65    29    73    1
    66    30    37    1
    67    30    74    1
    68    30    75    1
    69    31    39    1
    70    31    76    1
    71    31    77    1
    72    32    34    1
    73    32    78    1
    74    32    79    1
    75    33    34    1
    76    33    42    1
    77    33    47    1
    78    34    80    1
    79    35    81    1
    80    35    82    1
    81    35    83    1
    82    36    39    1
    83    36    84    1
    84    37    85    1
    85    38    86    1
    86    38    87    1
    87    38    88    1
    88    39    89    1
    89    39    90    1
    90    40    91    1
    91    40    92    1
    92    40    93    1
    93    41    43    1
    94    41    94    1
    95    41    95    1
    96    42    46    1
    97    42    96    1
    98    42    97    1
    99    43    46    1
   100    43    48    1
   101    43    49    1
   102    44   101    1
   103    44   102    1
   104    44   103    1
   105    45    98    1
   106    45    99    1
   107    45   100    1
   108    46   104    1
   109    46   105    1
   110    48   107    1
   111    48   108    1
   112    48   109    1
   113    49   110    1
   114    49   111    1
   115    49   112    1
   116    50    51    1
   117    50   113    1
   118    51    53    1
   119    51   114    1
   120    52    55    1
   121    52   115    1
   122    53    56    1
   123    53   116    1
   124    54    56    1
   125    54    60    1
   126    54   117    1
   127    55    57    1
   128    55   118    1
   129    56   119    1
   130    57    59    1
   131    57   121    1
   132    58    59    1
   133    58   122    1
   134    58   123    1
   135    59   124    1
   136    61    62    1
   137    61   129    1
   138    62    63    1
   139    62   131    1
   140    63    65    1
   141    63   132    1
   142    64    65    1
   143    64    66    1
   144    64   133    1
   145    65   134    1
   146    66   136    1
   147    66   137    1
