@<TRIPOS>MOLECULE
IMPHY007776
 71 76 0 0 0
SMALL
GASTEIGER

@<TRIPOS>ATOM
      1 O           5.5954   -2.2515    0.0000 O.3     1  UNL1       -0.3448
      2 O           3.9300   -1.1704    0.0000 O.3     1  UNL1       -0.3480
      3 O          11.0589   -0.5409    0.0000 O.2     1  UNL1       -0.2971
      4 O          12.0027    3.1277    0.0000 O.2     1  UNL1       -0.2974
      5 C           6.6628   -0.0167    0.0000 C.3     1  UNL1       -0.0233
      6 C           7.5288   -0.5167    0.0000 C.3     1  UNL1       -0.0295
      7 C           5.9258   -0.6838    0.0000 C.3     1  UNL1       -0.0015
      8 C           8.3948   -0.0167    0.0000 C.3     1  UNL1       -0.0276
      9 C           8.3948    0.9833    0.0000 C.3     1  UNL1       -0.0315
     10 C           6.3309   -1.5916    0.0000 C.3     1  UNL1        0.0660
     11 C           7.3196   -1.4885    0.0000 C.3     1  UNL1       -0.0226
     12 C           6.6628    0.9833    0.0000 C.3     1  UNL1       -0.0467
     13 C           4.9434   -0.7905    0.0000 C.3     1  UNL1        0.0160
     14 C           9.2888    1.5180    0.0000 C.3     1  UNL1       -0.0187
     15 C           7.5288    1.4833    0.0000 C.3     1  UNL1       -0.0489
     16 C           4.7396   -1.7574    0.0000 C.3     1  UNL1        0.1732
     17 C           9.2888   -0.5514    0.0000 C.3     1  UNL1        0.0095
     18 C           5.7968    0.4833    0.0000 C.3     1  UNL1       -0.0590
     19 C          10.1949    1.0041    0.0000 C.3     1  UNL1        0.0298
     20 C           9.2637    2.6027    0.0000 C.3     1  UNL1       -0.0400
     21 C          10.1949   -0.0375    0.0000 C.2     1  UNL1        0.1376
     22 C           4.2723   -0.0491    0.0000 C.3     1  UNL1       -0.0572
     23 C           4.6359   -2.7520    0.0000 C.3     1  UNL1        0.0020
     24 C           8.4189    2.0113    0.0000 C.3     1  UNL1       -0.0586
     25 C          11.1386    1.5394    0.0000 C.3     1  UNL1        0.0158
     26 C          10.1949    3.1596    0.0000 C.3     1  UNL1        0.0064
     27 C           3.7227   -3.1596    0.0000 C.3     1  UNL1       -0.0435
     28 C          11.1386    2.6243    0.0000 C.2     1  UNL1        0.1341
     29 C           2.9132   -2.5725    0.0000 C.3     1  UNL1       -0.0201
     30 C           3.0169   -1.5779    0.0000 C.3     1  UNL1        0.0535
     31 C           2.0000   -2.9800    0.0000 C.3     1  UNL1       -0.0603
     32 H           8.0299   -0.8818    0.0000 H       1  UNL1        0.0310
     33 H           5.6719   -0.1182    0.0000 H       1  UNL1        0.0335
     34 H           8.3901   -0.6367    0.0000 H       1  UNL1        0.0310
     35 H           8.9342    0.6774    0.0000 H       1  UNL1        0.0309
     36 H           6.5823   -2.1583    0.0000 H       1  UNL1        0.0600
     37 H           7.3187   -2.1085    0.0000 H       1  UNL1        0.0293
     38 H           7.9361   -1.5546    0.0000 H       1  UNL1        0.0293
     39 H           6.4507    1.5659    0.0000 H       1  UNL1        0.0271
     40 H           6.0522    0.8756    0.0000 H       1  UNL1        0.0271
     41 H           4.3448   -0.9522    0.0000 H       1  UNL1        0.0354
     42 H           7.9274    1.9582    0.0000 H       1  UNL1        0.0268
     43 H           7.1303    1.9582    0.0000 H       1  UNL1        0.0268
     44 H           8.8842   -1.0212    0.0000 H       1  UNL1        0.0345
     45 H           9.6824   -1.0304    0.0000 H       1  UNL1        0.0345
     46 H           6.1068    1.0202    0.0000 H       1  UNL1        0.0235
     47 H           5.2598    0.7933    0.0000 H       1  UNL1        0.0235
     48 H           5.4868   -0.0536    0.0000 H       1  UNL1        0.0235
     49 H          10.7306    0.6920    0.0000 H       1  UNL1        0.0387
     50 H           9.0412    3.1814    0.0000 H       1  UNL1        0.0275
     51 H           8.6555    2.4825    0.0000 H       1  UNL1        0.0275
     52 H           4.7320    0.3670    0.0000 H       1  UNL1        0.0234
     53 H           3.8562    0.4106    0.0000 H       1  UNL1        0.0234
     54 H           3.8126   -0.4651    0.0000 H       1  UNL1        0.0234
     55 H           4.7864   -3.3535    0.0000 H       1  UNL1        0.0317
     56 H           5.2544   -2.7083    0.0000 H       1  UNL1        0.0317
     57 H           8.7248    2.5506    0.0000 H       1  UNL1        0.0235
     58 H           7.8796    2.3171    0.0000 H       1  UNL1        0.0235
     59 H           8.1131    1.4720    0.0000 H       1  UNL1        0.0235
     60 H          11.3477    0.9557    0.0000 H       1  UNL1        0.0348
     61 H          11.7495    1.6454    0.0000 H       1  UNL1        0.0348
     62 H          10.5885    3.6386    0.0000 H       1  UNL1        0.0342
     63 H           9.7903    3.6294    0.0000 H       1  UNL1        0.0342
     64 H           3.2771   -3.5906    0.0000 H       1  UNL1        0.0270
     65 H           4.0699   -3.6733    0.0000 H       1  UNL1        0.0270
     66 H           2.4113   -2.2085    0.0000 H       1  UNL1        0.0320
     67 H           2.8664   -0.9764    0.0000 H       1  UNL1        0.0563
     68 H           2.3984   -1.6217    0.0000 H       1  UNL1        0.0563
     69 H           1.7473   -2.4138    0.0000 H       1  UNL1        0.0233
     70 H           1.4338   -3.2327    0.0000 H       1  UNL1        0.0233
     71 H           2.2527   -3.5462    0.0000 H       1  UNL1        0.0233
@<TRIPOS>BOND
     1     1    10    1
     2     1    16    1
     3     2    16    1
     4     2    30    1
     5     3    21    2
     6     4    28    2
     7     5     6    1
     8     5     7    1
     9     5    12    1
    10     5    18    1
    11     6     8    1
    12     6    11    1
    13     6    32    1
    14     7    10    1
    15     7    13    1
    16     7    33    1
    17     8     9    1
    18     8    17    1
    19     8    34    1
    20     9    14    1
    21     9    15    1
    22     9    35    1
    23    10    11    1
    24    10    36    1
    25    11    37    1
    26    11    38    1
    27    12    15    1
    28    12    39    1
    29    12    40    1
    30    13    16    1
    31    13    22    1
    32    13    41    1
    33    14    19    1
    34    14    20    1
    35    14    24    1
    36    15    42    1
    37    15    43    1
    38    16    23    1
    39    17    21    1
    40    17    44    1
    41    17    45    1
    42    18    46    1
    43    18    47    1
    44    18    48    1
    45    19    21    1
    46    19    25    1
    47    19    49    1
    48    20    26    1
    49    20    50    1
    50    20    51    1
    51    22    52    1
    52    22    53    1
    53    22    54    1
    54    23    27    1
    55    23    55    1
    56    23    56    1
    57    24    57    1
    58    24    58    1
    59    24    59    1
    60    25    28    1
    61    25    60    1
    62    25    61    1
    63    26    28    1
    64    26    62    1
    65    26    63    1
    66    27    29    1
    67    27    64    1
    68    27    65    1
    69    29    30    1
    70    29    31    1
    71    29    66    1
    72    30    67    1
    73    30    68    1
    74    31    69    1
    75    31    70    1
    76    31    71    1
