@<TRIPOS>MOLECULE
IMPHY016273
 29 30 0 0 0
SMALL
GASTEIGER

@<TRIPOS>ATOM
      1 C           3.2369    1.1644    0.0000 C.3     1  UNL1       -0.0227
      2 C           3.7147   -0.7841    0.0000 C.3     1  UNL1       -0.0059
      3 C           3.9735    0.1818    0.0000 C.3     1  UNL1       -0.0314
      4 C           2.3420   -1.3761    0.0000 C.3     1  UNL1       -0.0432
      5 C           2.0000   -0.4364    0.0000 C.3     1  UNL1       -0.0486
      6 C           5.3725   -0.3270    0.0000 C.3     1  UNL1       -0.0281
      7 C           5.1137   -1.2929    0.0000 C.2     1  UNL1       -0.0699
      8 C           3.3415    2.1590    0.0000 C.3     1  UNL1       -0.0588
      9 C           2.3234    1.5712    0.0000 C.3     1  UNL1       -0.0588
     10 C           3.4559   -1.7500    0.0000 C.3     1  UNL1       -0.0554
     11 C           5.6137   -2.1590    0.0000 C.2     1  UNL1       -0.0989
     12 H           3.9595   -0.4380    0.0000 H       1  UNL1        0.0309
     13 H           1.7636   -1.5994    0.0000 H       1  UNL1        0.0274
     14 H           2.5765   -1.9501    0.0000 H       1  UNL1        0.0274
     15 H           1.8057    0.1523    0.0000 H       1  UNL1        0.0268
     16 H           1.4142   -0.6396    0.0000 H       1  UNL1        0.0268
     17 H           5.9664   -0.5048    0.0000 H       1  UNL1        0.0313
     18 H           5.5674    0.2616    0.0000 H       1  UNL1        0.0313
     19 H           3.9581    2.0942    0.0000 H       1  UNL1        0.0235
     20 H           3.4063    2.7756    0.0000 H       1  UNL1        0.0235
     21 H           2.7248    2.2238    0.0000 H       1  UNL1        0.0235
     22 H           2.5756    2.1376    0.0000 H       1  UNL1        0.0235
     23 H           1.7570    1.8233    0.0000 H       1  UNL1        0.0235
     24 H           2.0712    1.0048    0.0000 H       1  UNL1        0.0235
     25 H           2.8570   -1.5896    0.0000 H       1  UNL1        0.0238
     26 H           3.2954   -2.3489    0.0000 H       1  UNL1        0.0238
     27 H           4.0548   -1.9105    0.0000 H       1  UNL1        0.0238
     28 H           5.3037   -2.6959    0.0000 H       1  UNL1        0.0535
     29 H           6.2337   -2.1590    0.0000 H       1  UNL1        0.0535
@<TRIPOS>BOND
     1     1     2    1
     2     1     3    1
     3     1     8    1
     4     1     9    1
     5     2     4    1
     6     2     7    1
     7     2    10    1
     8     3     5    1
     9     3     6    1
    10     3    12    1
    11     4     5    1
    12     4    13    1
    13     4    14    1
    14     5    15    1
    15     5    16    1
    16     6     7    1
    17     6    17    1
    18     6    18    1
    19     7    11    2
    20     8    19    1
    21     8    20    1
    22     8    21    1
    23     9    22    1
    24     9    23    1
    25     9    24    1
    26    10    25    1
    27    10    26    1
    28    10    27    1
    29    11    28    1
    30    11    29    1
