@<TRIPOS>MOLECULE
IMPHY016510
 16 15 0 0 0
SMALL
GASTEIGER

@<TRIPOS>ATOM
      1 S           5.4641    0.2500    0.0000 S.3     1  UNL1       -0.0770
      2 S           4.5981   -0.2500    0.0000 S.3     1  UNL1       -0.0126
      3 S           2.8660   -0.2500    0.0000 S.3     1  UNL1       -0.0845
      4 S           3.7320    0.2500    0.0000 S.3     1  UNL1       -0.0132
      5 C           6.3301   -0.2500    0.0000 C.3     1  UNL1        0.0226
      6 C           7.1962    0.2500    0.0000 C.2     1  UNL1       -0.0805
      7 C           8.0622   -0.2500    0.0000 C.2     1  UNL1       -0.1018
      8 C           2.0000    0.2500    0.0000 C.3     1  UNL1       -0.0070
      9 H           5.9316   -0.7249    0.0000 H       1  UNL1        0.0427
     10 H           6.7287   -0.7249    0.0000 H       1  UNL1        0.0427
     11 H           7.1962    0.8700    0.0000 H       1  UNL1        0.0575
     12 H           8.0622   -0.8700    0.0000 H       1  UNL1        0.0532
     13 H           8.5991    0.0600    0.0000 H       1  UNL1        0.0532
     14 H           2.3100    0.7869    0.0000 H       1  UNL1        0.0349
     15 H           1.4631    0.5600    0.0000 H       1  UNL1        0.0349
     16 H           1.6900   -0.2869    0.0000 H       1  UNL1        0.0349
@<TRIPOS>BOND
     1     1     2    1
     2     1     5    1
     3     2     4    1
     4     3     4    1
     5     3     8    1
     6     5     6    1
     7     5     9    1
     8     5    10    1
     9     6     7    2
    10     6    11    1
    11     7    12    1
    12     7    13    1
    13     8    14    1
    14     8    15    1
    15     8    16    1
