@<TRIPOS>MOLECULE
IMPHY017257
 22 23 0 0 0
SMALL
GASTEIGER

@<TRIPOS>ATOM
      1 O           2.8660    1.2500    0.0000 O.3     1  UNL1       -0.4944
      2 O           4.9889    1.0052    0.0000 O.2     1  UNL1       -0.2919
      3 C           4.6783   -1.5547    0.0000 C.3     1  UNL1       -0.0199
      4 C           3.7320   -1.2500    0.0000 C.ar    1  UNL1       -0.0330
      5 C           5.2619   -0.7500    0.0000 C.3     1  UNL1        0.0146
      6 C           3.7320   -0.2500    0.0000 C.ar    1  UNL1        0.0622
      7 C           4.6783    0.0547    0.0000 C.2     1  UNL1        0.1672
      8 C           2.8660    0.2500    0.0000 C.ar    1  UNL1        0.1308
      9 C           2.8660   -1.7500    0.0000 C.ar    1  UNL1       -0.0577
     10 C           2.0000   -0.2500    0.0000 C.ar    1  UNL1       -0.0192
     11 C           2.0000   -1.2500    0.0000 C.ar    1  UNL1       -0.0580
     12 C           2.0000    1.7500    0.0000 C.3     1  UNL1        0.0788
     13 H           4.4272   -2.1216    0.0000 H       1  UNL1        0.0318
     14 H           5.2156   -1.8640    0.0000 H       1  UNL1        0.0318
     15 H           5.7227   -1.1647    0.0000 H       1  UNL1        0.0348
     16 H           5.7227   -0.3353    0.0000 H       1  UNL1        0.0348
     17 H           2.8660   -2.3700    0.0000 H       1  UNL1        0.0621
     18 H           1.4631    0.0600    0.0000 H       1  UNL1        0.0654
     19 H           1.4631   -1.5600    0.0000 H       1  UNL1        0.0619
     20 H           2.3100    2.2869    0.0000 H       1  UNL1        0.0660
     21 H           1.4631    2.0600    0.0000 H       1  UNL1        0.0660
     22 H           1.6900    1.2131    0.0000 H       1  UNL1        0.0660
@<TRIPOS>BOND
     1     1     8    1
     2     1    12    1
     3     2     7    2
     4     3     4    1
     5     3     5    1
     6     3    13    1
     7     3    14    1
     8     4     6   ar
     9     4     9   ar
    10     5     7    1
    11     5    15    1
    12     5    16    1
    13     6     7    1
    14     6     8   ar
    15     8    10   ar
    16     9    11   ar
    17     9    17    1
    18    10    11   ar
    19    10    18    1
    20    11    19    1
    21    12    20    1
    22    12    21    1
    23    12    22    1
