@<TRIPOS>MOLECULE
IMPHY006807
 55 56 0 0 0
SMALL
GASTEIGER

@<TRIPOS>ATOM
      1 O           8.0901   -0.8069    0.0000 O.2     1  UNL1       -0.4216
      2 O           6.3301    2.2278    0.0000 O.3     1  UNL1       -0.5052
      3 O           4.5981   -0.7723    0.0000 O.3     1  UNL1       -0.5055
      4 O           4.5981    2.2278    0.0000 O.2     1  UNL1       -0.2915
      5 O           9.8602   -0.7964    0.0000 O.2     1  UNL1       -0.2452
      6 C           7.1962    0.7277    0.0000 C.ar    1  UNL1        0.0633
      7 C           3.7320    0.7277    0.0000 C.3     1  UNL1        0.0193
      8 C           5.4641    0.7277    0.0000 C.ar    1  UNL1        0.1014
      9 C           6.3301   -0.7723    0.0000 C.ar    1  UNL1        0.0416
     10 C           7.1962   -0.2723    0.0000 C.ar    1  UNL1        0.1498
     11 C           8.0901    1.2624    0.0000 C.ar    1  UNL1       -0.0264
     12 C           6.3301    1.2277    0.0000 C.ar    1  UNL1        0.1418
     13 C           5.4641   -0.2723    0.0000 C.ar    1  UNL1        0.1378
     14 C           4.5981    1.2277    0.0000 C.2     1  UNL1        0.1730
     15 C           8.0785    2.2623    0.0000 C.3     1  UNL1       -0.0269
     16 C           2.8660    1.2277    0.0000 C.3     1  UNL1       -0.0463
     17 C           6.3301   -1.7722    0.0000 C.3     1  UNL1       -0.0022
     18 C           3.7320   -0.2723    0.0000 C.3     1  UNL1       -0.0554
     19 C           8.9387    2.7723    0.0000 C.3     1  UNL1       -0.0519
     20 C           8.9962    0.7486    0.0000 C.ar    1  UNL1        0.0269
     21 C           8.9962   -0.2931    0.0000 C.ar    1  UNL1        0.3375
     22 C           2.0000    0.7277    0.0000 C.3     1  UNL1       -0.0646
     23 C           5.4641   -2.2722    0.0000 C.2     1  UNL1       -0.0807
     24 C           8.9271    3.7722    0.0000 C.3     1  UNL1       -0.0650
     25 C           5.4641   -3.2722    0.0000 C.2     1  UNL1       -0.0793
     26 C           4.5981   -3.7722    0.0000 C.3     1  UNL1       -0.0440
     27 C           6.3301   -3.7722    0.0000 C.3     1  UNL1       -0.0440
     28 H           4.2690    0.4177    0.0000 H       1  UNL1        0.0378
     29 H           7.8598    2.8425    0.0000 H       1  UNL1        0.0313
     30 H           7.4692    2.1476    0.0000 H       1  UNL1        0.0313
     31 H           3.2646    1.7027    0.0000 H       1  UNL1        0.0269
     32 H           2.4675    1.7027    0.0000 H       1  UNL1        0.0269
     33 H           6.5422   -2.3549    0.0000 H       1  UNL1        0.0358
     34 H           6.9407   -1.6646    0.0000 H       1  UNL1        0.0358
     35 H           3.1120   -0.2723    0.0000 H       1  UNL1        0.0237
     36 H           3.7320   -0.8923    0.0000 H       1  UNL1        0.0237
     37 H           4.3520   -0.2723    0.0000 H       1  UNL1        0.0237
     38 H           9.1575    2.1922    0.0000 H       1  UNL1        0.0266
     39 H           9.5480    2.8870    0.0000 H       1  UNL1        0.0266
     40 H           9.5319    1.0606    0.0000 H       1  UNL1        0.0692
     41 H           1.6900    1.2647    0.0000 H       1  UNL1        0.0230
     42 H           1.4631    0.4177    0.0000 H       1  UNL1        0.0230
     43 H           2.3100    0.1908    0.0000 H       1  UNL1        0.0230
     44 H           4.9272   -1.9622    0.0000 H       1  UNL1        0.0575
     45 H           9.5471    3.7794    0.0000 H       1  UNL1        0.0230
     46 H           8.9200    4.3922    0.0000 H       1  UNL1        0.0230
     47 H           8.3072    3.7651    0.0000 H       1  UNL1        0.0230
     48 H           5.7932    2.5378    0.0000 H       1  UNL1        0.2922
     49 H           4.5981   -1.3922    0.0000 H       1  UNL1        0.2922
     50 H           4.2881   -3.2353    0.0000 H       1  UNL1        0.0274
     51 H           4.0611   -4.0822    0.0000 H       1  UNL1        0.0274
     52 H           4.9081   -4.3092    0.0000 H       1  UNL1        0.0274
     53 H           6.0201   -4.3092    0.0000 H       1  UNL1        0.0274
     54 H           6.8671   -4.0822    0.0000 H       1  UNL1        0.0274
     55 H           6.6401   -3.2353    0.0000 H       1  UNL1        0.0274
@<TRIPOS>BOND
     1     1    10   ar
     2     1    21   ar
     3     2    12    1
     4     2    48    1
     5     3    13    1
     6     3    49    1
     7     4    14    2
     8     5    21    2
     9     6    10   ar
    10     6    11   ar
    11     6    12   ar
    12     7    14    1
    13     7    16    1
    14     7    18    1
    15     7    28    1
    16     8    12   ar
    17     8    13   ar
    18     8    14    1
    19     9    10   ar
    20     9    13   ar
    21     9    17    1
    22    11    15    1
    23    11    20   ar
    24    15    19    1
    25    15    29    1
    26    15    30    1
    27    16    22    1
    28    16    31    1
    29    16    32    1
    30    17    23    1
    31    17    33    1
    32    17    34    1
    33    18    35    1
    34    18    36    1
    35    18    37    1
    36    19    24    1
    37    19    38    1
    38    19    39    1
    39    20    21   ar
    40    20    40    1
    41    22    41    1
    42    22    42    1
    43    22    43    1
    44    23    25    2
    45    23    44    1
    46    24    45    1
    47    24    46    1
    48    24    47    1
    49    25    26    1
    50    25    27    1
    51    26    50    1
    52    26    51    1
    53    26    52    1
    54    27    53    1
    55    27    54    1
    56    27    55    1
