@<TRIPOS>MOLECULE
IMPHY011741
 174 184 0 0 0
SMALL
GASTEIGER

@<TRIPOS>ATOM
      1 O          12.9292    1.0000    0.0000 O.3     1  UNL1       -0.3281
      2 O          12.9292   -2.0000    0.0000 O.3     1  UNL1       -0.4500
      3 O          11.1972   -1.0000    0.0000 O.3     1  UNL1       -0.4512
      4 O          14.6613   -1.0000    0.0000 O.3     1  UNL1       -0.4476
      5 O          14.6613    1.0000    0.0000 O.3     1  UNL1       -0.4275
      6 O          11.1972    2.0000    0.0000 O.3     1  UNL1       -0.4584
      7 O          11.1972   -2.0000    0.0000 O.2     1  UNL1       -0.2449
      8 O          10.3312    0.5000    0.0000 O.2     1  UNL1       -0.2449
      9 O          15.5273    0.5000    0.0000 O.2     1  UNL1       -0.2449
     10 O          13.7953    2.5000    0.0000 O.2     1  UNL1       -0.2449
     11 O           9.4651    2.0000    0.0000 O.2     1  UNL1       -0.2450
     12 O          10.3312   -5.5000    0.0000 O.3     1  UNL1       -0.4185
     13 O           6.8671   -0.5000    0.0000 O.3     1  UNL1       -0.4185
     14 O          17.2594   -3.5000    0.0000 O.3     1  UNL1       -0.4185
     15 O          13.7953   -5.5000    0.0000 O.3     1  UNL1       -0.5032
     16 O           8.5991   -3.5000    0.0000 O.3     1  UNL1       -0.5032
     17 O          18.9914   -0.5000    0.0000 O.3     1  UNL1       -0.5032
     18 O          18.1254    2.0000    0.0000 O.3     1  UNL1       -0.4185
     19 O          12.0632   -6.5000    0.0000 O.3     1  UNL1       -0.5009
     20 O           6.8671   -2.5000    0.0000 O.3     1  UNL1       -0.5009
     21 O          16.3933    5.0000    0.0000 O.3     1  UNL1       -0.5032
     22 O          18.9914   -2.5000    0.0000 O.3     1  UNL1       -0.5009
     23 O          18.1254    4.0000    0.0000 O.3     1  UNL1       -0.5009
     24 O          12.0632    5.5000    0.0000 O.3     1  UNL1       -0.4185
     25 O           8.5991    5.5000    0.0000 O.3     1  UNL1       -0.5032
     26 O          10.3312    6.5000    0.0000 O.3     1  UNL1       -0.5009
     27 O          11.1972   -7.0000    0.0000 O.2     1  UNL1       -0.2445
     28 O           6.0010   -2.0000    0.0000 O.2     1  UNL1       -0.2445
     29 O          18.9914   -3.5000    0.0000 O.2     1  UNL1       -0.2445
     30 O          18.9914    3.5000    0.0000 O.2     1  UNL1       -0.2445
     31 O          11.1972    7.0000    0.0000 O.2     1  UNL1       -0.2445
     32 O           8.5991   -9.5000    0.0000 O.3     1  UNL1       -0.5032
     33 O           6.8671   -6.5000    0.0000 O.3     1  UNL1       -0.5032
     34 O           2.5369   -1.0000    0.0000 O.3     1  UNL1       -0.5032
     35 O           4.2690    2.0000    0.0000 O.3     1  UNL1       -0.5032
     36 O          19.8574   -7.0000    0.0000 O.3     1  UNL1       -0.5032
     37 O          16.3933   -7.0000    0.0000 O.3     1  UNL1       -0.5032
     38 O           6.8671   -8.5000    0.0000 O.3     1  UNL1       -0.5009
     39 O           2.5369    1.0000    0.0000 O.3     1  UNL1       -0.5009
     40 O          22.4555    2.5000    0.0000 O.3     1  UNL1       -0.5032
     41 O          20.7235   -0.5000    0.0000 O.3     1  UNL1       -0.5032
     42 O          18.1254   -8.0000    0.0000 O.3     1  UNL1       -0.5009
     43 O          22.4555    0.5000    0.0000 O.3     1  UNL1       -0.5009
     44 O          13.7953    9.5000    0.0000 O.3     1  UNL1       -0.5032
     45 O          15.5273    6.5000    0.0000 O.3     1  UNL1       -0.5032
     46 O          15.5273    8.5000    0.0000 O.3     1  UNL1       -0.5009
     47 C          12.9292   -1.0000    0.0000 C.3     1  UNL1        0.1851
     48 C          12.0632   -0.5000    0.0000 C.3     1  UNL1        0.1730
     49 C          13.7953   -0.5000    0.0000 C.3     1  UNL1        0.2053
     50 C          12.0632    0.5000    0.0000 C.3     1  UNL1        0.1371
     51 C          13.7953    0.5000    0.0000 C.3     1  UNL1        0.2465
     52 C          11.1972    1.0000    0.0000 C.3     1  UNL1        0.1226
     53 C          12.0632   -2.5000    0.0000 C.2     1  UNL1        0.3399
     54 C          10.3312   -0.5000    0.0000 C.2     1  UNL1        0.3399
     55 C          15.5273   -0.5000    0.0000 C.2     1  UNL1        0.3400
     56 C          14.6613    2.0000    0.0000 C.2     1  UNL1        0.3417
     57 C          12.0632   -3.5000    0.0000 C.ar    1  UNL1        0.0662
     58 C           9.4651   -1.0000    0.0000 C.ar    1  UNL1        0.0662
     59 C          16.3933   -1.0000    0.0000 C.ar    1  UNL1        0.0662
     60 C          10.3312    2.5000    0.0000 C.2     1  UNL1        0.3395
     61 C          15.5273    2.5000    0.0000 C.ar    1  UNL1        0.0662
     62 C          10.3312    3.5000    0.0000 C.ar    1  UNL1        0.0661
     63 C          11.1972   -4.0000    0.0000 C.ar    1  UNL1       -0.0013
     64 C           8.5991   -0.5000    0.0000 C.ar    1  UNL1       -0.0013
     65 C          12.9292   -4.0000    0.0000 C.ar    1  UNL1       -0.0023
     66 C           9.4651   -2.0000    0.0000 C.ar    1  UNL1       -0.0023
     67 C          16.3933   -2.0000    0.0000 C.ar    1  UNL1       -0.0013
     68 C          17.2594   -0.5000    0.0000 C.ar    1  UNL1       -0.0023
     69 C          16.3933    2.0000    0.0000 C.ar    1  UNL1       -0.0013
     70 C          15.5273    3.5000    0.0000 C.ar    1  UNL1       -0.0023
     71 C          11.1972   -5.0000    0.0000 C.ar    1  UNL1        0.1776
     72 C           7.7331   -1.0000    0.0000 C.ar    1  UNL1        0.1776
     73 C          12.9292   -5.0000    0.0000 C.ar    1  UNL1        0.1628
     74 C           8.5991   -2.5000    0.0000 C.ar    1  UNL1        0.1628
     75 C          17.2594   -2.5000    0.0000 C.ar    1  UNL1        0.1776
     76 C          18.1254   -1.0000    0.0000 C.ar    1  UNL1        0.1628
     77 C          11.1972    4.0000    0.0000 C.ar    1  UNL1       -0.0013
     78 C           9.4651    4.0000    0.0000 C.ar    1  UNL1       -0.0023
     79 C          12.0632   -5.5000    0.0000 C.ar    1  UNL1        0.2016
     80 C           7.7331   -2.0000    0.0000 C.ar    1  UNL1        0.2016
     81 C          17.2594    2.5000    0.0000 C.ar    1  UNL1        0.1776
     82 C          16.3933    4.0000    0.0000 C.ar    1  UNL1        0.1628
     83 C          18.1254   -2.0000    0.0000 C.ar    1  UNL1        0.2016
     84 C          17.2594    3.5000    0.0000 C.ar    1  UNL1        0.2016
     85 C          11.1972    5.0000    0.0000 C.ar    1  UNL1        0.1776
     86 C           9.4651    5.0000    0.0000 C.ar    1  UNL1        0.1628
     87 C          10.3312    5.5000    0.0000 C.ar    1  UNL1        0.2016
     88 C          10.3312   -6.5000    0.0000 C.2     1  UNL1        0.3448
     89 C           6.0010   -1.0000    0.0000 C.2     1  UNL1        0.3448
     90 C          18.1254   -4.0000    0.0000 C.2     1  UNL1        0.3448
     91 C          18.9914    2.5000    0.0000 C.2     1  UNL1        0.3448
     92 C           9.4651   -7.0000    0.0000 C.ar    1  UNL1        0.0665
     93 C           5.1350   -0.5000    0.0000 C.ar    1  UNL1        0.0665
     94 C          12.0632    6.5000    0.0000 C.2     1  UNL1        0.3448
     95 C          18.1254   -5.0000    0.0000 C.ar    1  UNL1        0.0665
     96 C          19.8574    2.0000    0.0000 C.ar    1  UNL1        0.0665
     97 C          12.9292    7.0000    0.0000 C.ar    1  UNL1        0.0665
     98 C           8.5991   -6.5000    0.0000 C.ar    1  UNL1       -0.0023
     99 C           9.4651   -8.0000    0.0000 C.ar    1  UNL1       -0.0023
    100 C           5.1350    0.5000    0.0000 C.ar    1  UNL1       -0.0023
    101 C           4.2690   -1.0000    0.0000 C.ar    1  UNL1       -0.0023
    102 C          17.2594   -5.5000    0.0000 C.ar    1  UNL1       -0.0023
    103 C          18.9914   -5.5000    0.0000 C.ar    1  UNL1       -0.0023
    104 C          19.8574    1.0000    0.0000 C.ar    1  UNL1       -0.0023
    105 C          20.7235    2.5000    0.0000 C.ar    1  UNL1       -0.0023
    106 C           8.5991   -8.5000    0.0000 C.ar    1  UNL1        0.1628
    107 C           7.7331   -7.0000    0.0000 C.ar    1  UNL1        0.1628
    108 C           3.4030   -0.5000    0.0000 C.ar    1  UNL1        0.1628
    109 C           4.2690    1.0000    0.0000 C.ar    1  UNL1        0.1628
    110 C          18.9914   -6.5000    0.0000 C.ar    1  UNL1        0.1628
    111 C          17.2594   -6.5000    0.0000 C.ar    1  UNL1        0.1628
    112 C          13.7953    6.5000    0.0000 C.ar    1  UNL1       -0.0023
    113 C          12.9292    8.0000    0.0000 C.ar    1  UNL1       -0.0023
    114 C           7.7331   -8.0000    0.0000 C.ar    1  UNL1        0.2006
    115 C           3.4030    0.5000    0.0000 C.ar    1  UNL1        0.2006
    116 C          21.5895    2.0000    0.0000 C.ar    1  UNL1        0.1628
    117 C          20.7235    0.5000    0.0000 C.ar    1  UNL1        0.1628
    118 C          18.1254   -7.0000    0.0000 C.ar    1  UNL1        0.2006
    119 C          21.5895    1.0000    0.0000 C.ar    1  UNL1        0.2006
    120 C          13.7953    8.5000    0.0000 C.ar    1  UNL1        0.1628
    121 C          14.6613    7.0000    0.0000 C.ar    1  UNL1        0.1628
    122 C          14.6613    8.0000    0.0000 C.ar    1  UNL1        0.2006
    123 H          12.3923   -1.3100    0.0000 H       1  UNL1        0.0813
    124 H          11.5263   -0.1900    0.0000 H       1  UNL1        0.0801
    125 H          13.7953   -1.1200    0.0000 H       1  UNL1        0.0837
    126 H          12.0632    1.1200    0.0000 H       1  UNL1        0.0670
    127 H          14.3322    0.1900    0.0000 H       1  UNL1        0.1098
    128 H          10.5866    1.1077    0.0000 H       1  UNL1        0.0725
    129 H          10.9851    0.4174    0.0000 H       1  UNL1        0.0725
    130 H          10.6603   -3.6900    0.0000 H       1  UNL1        0.0664
    131 H           8.5991    0.1200    0.0000 H       1  UNL1        0.0664
    132 H          13.4662   -3.6900    0.0000 H       1  UNL1        0.0663
    133 H          10.0021   -2.3100    0.0000 H       1  UNL1        0.0663
    134 H          15.8564   -2.3100    0.0000 H       1  UNL1        0.0664
    135 H          17.2594    0.1200    0.0000 H       1  UNL1        0.0663
    136 H          16.3933    1.3800    0.0000 H       1  UNL1        0.0664
    137 H          14.9904    3.8100    0.0000 H       1  UNL1        0.0663
    138 H          11.7341    3.6900    0.0000 H       1  UNL1        0.0664
    139 H           8.9282    3.6900    0.0000 H       1  UNL1        0.0663
    140 H          14.3322   -5.1900    0.0000 H       1  UNL1        0.2923
    141 H           8.0622   -3.8100    0.0000 H       1  UNL1        0.2923
    142 H          19.5284   -0.8100    0.0000 H       1  UNL1        0.2923
    143 H          12.6002   -6.8100    0.0000 H       1  UNL1        0.2924
    144 H           6.8671   -3.1200    0.0000 H       1  UNL1        0.2924
    145 H          15.8564    5.3100    0.0000 H       1  UNL1        0.2923
    146 H          19.5284   -2.1900    0.0000 H       1  UNL1        0.2924
    147 H          18.1254    4.6200    0.0000 H       1  UNL1        0.2924
    148 H           8.0622    5.1900    0.0000 H       1  UNL1        0.2923
    149 H           9.7942    6.8100    0.0000 H       1  UNL1        0.2924
    150 H           8.5991   -5.8800    0.0000 H       1  UNL1        0.0663
    151 H          10.0021   -8.3100    0.0000 H       1  UNL1        0.0663
    152 H           5.6720    0.8100    0.0000 H       1  UNL1        0.0663
    153 H           4.2690   -1.6200    0.0000 H       1  UNL1        0.0663
    154 H          16.7224   -5.1900    0.0000 H       1  UNL1        0.0663
    155 H          19.5284   -5.1900    0.0000 H       1  UNL1        0.0663
    156 H          19.3205    0.6900    0.0000 H       1  UNL1        0.0663
    157 H          20.7235    3.1200    0.0000 H       1  UNL1        0.0663
    158 H          13.7953    5.8800    0.0000 H       1  UNL1        0.0663
    159 H          12.3923    8.3100    0.0000 H       1  UNL1        0.0663
    160 H           9.1360   -9.8100    0.0000 H       1  UNL1        0.2923
    161 H           6.3301   -6.8100    0.0000 H       1  UNL1        0.2923
    162 H           2.5369   -1.6200    0.0000 H       1  UNL1        0.2923
    163 H           3.7320    2.3100    0.0000 H       1  UNL1        0.2923
    164 H          20.3944   -6.6900    0.0000 H       1  UNL1        0.2923
    165 H          16.3933   -7.6200    0.0000 H       1  UNL1        0.2923
    166 H           6.8671   -9.1200    0.0000 H       1  UNL1        0.2924
    167 H           2.0000    0.6900    0.0000 H       1  UNL1        0.2924
    168 H          22.4555    3.1200    0.0000 H       1  UNL1        0.2923
    169 H          21.2604   -0.8100    0.0000 H       1  UNL1        0.2923
    170 H          18.6623   -8.3100    0.0000 H       1  UNL1        0.2924
    171 H          22.9925    0.8100    0.0000 H       1  UNL1        0.2924
    172 H          13.2583    9.8100    0.0000 H       1  UNL1        0.2923
    173 H          16.0643    6.8100    0.0000 H       1  UNL1        0.2923
    174 H          15.5273    9.1200    0.0000 H       1  UNL1        0.2924
@<TRIPOS>BOND
     1     1    50    1
     2     1    51    1
     3    47     2    1
     4     2    53    1
     5    48     3    1
     6     3    54    1
     7    49     4    1
     8     4    55    1
     9    51     5    1
    10     5    56    1
    11     6    52    1
    12     6    60    1
    13     7    53    2
    14     8    54    2
    15     9    55    2
    16    10    56    2
    17    11    60    2
    18    12    71    1
    19    12    88    1
    20    13    72    1
    21    13    89    1
    22    14    75    1
    23    14    90    1
    24    15    73    1
    25    15   140    1
    26    16    74    1
    27    16   141    1
    28    17    76    1
    29    17   142    1
    30    18    81    1
    31    18    91    1
    32    19    79    1
    33    19   143    1
    34    20    80    1
    35    20   144    1
    36    21    82    1
    37    21   145    1
    38    22    83    1
    39    22   146    1
    40    23    84    1
    41    23   147    1
    42    24    85    1
    43    24    94    1
    44    25    86    1
    45    25   148    1
    46    26    87    1
    47    26   149    1
    48    27    88    2
    49    28    89    2
    50    29    90    2
    51    30    91    2
    52    31    94    2
    53    32   106    1
    54    32   160    1
    55    33   107    1
    56    33   161    1
    57    34   108    1
    58    34   162    1
    59    35   109    1
    60    35   163    1
    61    36   110    1
    62    36   164    1
    63    37   111    1
    64    37   165    1
    65    38   114    1
    66    38   166    1
    67    39   115    1
    68    39   167    1
    69    40   116    1
    70    40   168    1
    71    41   117    1
    72    41   169    1
    73    42   118    1
    74    42   170    1
    75    43   119    1
    76    43   171    1
    77    44   120    1
    78    44   172    1
    79    45   121    1
    80    45   173    1
    81    46   122    1
    82    46   174    1
    83    47    48    1
    84    47    49    1
    85    47   123    1
    86    48    50    1
    87    48   124    1
    88    49    51    1
    89    49   125    1
    90    50    52    1
    91    50   126    1
    92    51   127    1
    93    52   128    1
    94    52   129    1
    95    53    57    1
    96    54    58    1
    97    55    59    1
    98    56    61    1
    99    57    63   ar
   100    57    65   ar
   101    58    64   ar
   102    58    66   ar
   103    59    67   ar
   104    59    68   ar
   105    60    62    1
   106    61    69   ar
   107    61    70   ar
   108    62    77   ar
   109    62    78   ar
   110    63    71   ar
   111    63   130    1
   112    64    72   ar
   113    64   131    1
   114    65    73   ar
   115    65   132    1
   116    66    74   ar
   117    66   133    1
   118    67    75   ar
   119    67   134    1
   120    68    76   ar
   121    68   135    1
   122    69    81   ar
   123    69   136    1
   124    70    82   ar
   125    70   137    1
   126    71    79   ar
   127    72    80   ar
   128    73    79   ar
   129    74    80   ar
   130    75    83   ar
   131    76    83   ar
   132    77    85   ar
   133    77   138    1
   134    78    86   ar
   135    78   139    1
   136    81    84   ar
   137    82    84   ar
   138    85    87   ar
   139    86    87   ar
   140    88    92    1
   141    89    93    1
   142    90    95    1
   143    91    96    1
   144    92    98   ar
   145    92    99   ar
   146    93   100   ar
   147    93   101   ar
   148    94    97    1
   149    95   102   ar
   150    95   103   ar
   151    96   104   ar
   152    96   105   ar
   153    97   112   ar
   154    97   113   ar
   155    98   107   ar
   156    98   150    1
   157    99   106   ar
   158    99   151    1
   159   100   109   ar
   160   100   152    1
   161   101   108   ar
   162   101   153    1
   163   102   111   ar
   164   102   154    1
   165   103   110   ar
   166   103   155    1
   167   104   117   ar
   168   104   156    1
   169   105   116   ar
   170   105   157    1
   171   106   114   ar
   172   107   114   ar
   173   108   115   ar
   174   109   115   ar
   175   110   118   ar
   176   111   118   ar
   177   112   121   ar
   178   112   158    1
   179   113   120   ar
   180   113   159    1
   181   116   119   ar
   182   117   119   ar
   183   120   122   ar
   184   121   122   ar
