@<TRIPOS>MOLECULE
IMPHY009075
 61 63 0 0 0
SMALL
GASTEIGER

@<TRIPOS>ATOM
      1 O           6.8671   -0.3450    0.0000 O.3     1  UNL1       -0.3411
      2 O          10.2022    0.4879    0.0000 O.3     1  UNL1       -0.4567
      3 O           5.1350   -0.3450    0.0000 O.3     1  UNL1       -0.3405
      4 O           6.8671   -2.3450    0.0000 O.3     1  UNL1       -0.3841
      5 O           5.1350   -3.3450    0.0000 O.3     1  UNL1       -0.3864
      6 O           3.4030   -2.3450    0.0000 O.3     1  UNL1       -0.3865
      7 O          10.2970   -1.2859    0.0000 O.2     1  UNL1       -0.2505
      8 O           2.5369   -0.8450    0.0000 O.3     1  UNL1       -0.3924
      9 C           8.5991    0.6550    0.0000 C.3     1  UNL1        0.0151
     10 C           7.7331    1.1550    0.0000 C.3     1  UNL1       -0.0154
     11 C           8.8083   -0.3168    0.0000 C.3     1  UNL1        0.0602
     12 C           9.4651    1.1550    0.0000 C.3     1  UNL1        0.1251
     13 C           6.8671    0.6550    0.0000 C.3     1  UNL1        0.0829
     14 C           6.0010   -0.8450    0.0000 C.3     1  UNL1        0.1886
     15 C           6.0010   -1.8450    0.0000 C.3     1  UNL1        0.1341
     16 C           5.1350   -2.3450    0.0000 C.3     1  UNL1        0.1141
     17 C           9.7970   -0.4199    0.0000 C.2     1  UNL1        0.3109
     18 C           4.2690   -1.8450    0.0000 C.3     1  UNL1        0.1119
     19 C           4.2690   -0.8450    0.0000 C.3     1  UNL1        0.1130
     20 C           6.0010    1.1550    0.0000 C.2     1  UNL1       -0.0481
     21 C           8.1405   -1.0611    0.0000 C.3     1  UNL1       -0.0519
     22 C           9.4651    2.1550    0.0000 C.2     1  UNL1       -0.0447
     23 C           8.5991    2.6550    0.0000 C.2     1  UNL1       -0.0728
     24 C           6.0010    2.1550    0.0000 C.2     1  UNL1       -0.0823
     25 C           7.7331    2.1550    0.0000 C.3     1  UNL1       -0.0284
     26 C           3.4030   -0.3450    0.0000 C.3     1  UNL1        0.0730
     27 C           6.8671    2.6550    0.0000 C.3     1  UNL1       -0.0308
     28 C           5.1350    0.6550    0.0000 C.3     1  UNL1       -0.0414
     29 C           8.5991    3.6550    0.0000 C.3     1  UNL1       -0.0437
     30 H           7.9121    0.1545    0.0000 H       1  UNL1        0.0348
     31 H           8.1316    1.6300    0.0000 H       1  UNL1        0.0298
     32 H           7.3346    1.6300    0.0000 H       1  UNL1        0.0298
     33 H           8.2091   -0.1576    0.0000 H       1  UNL1        0.0415
     34 H          10.2421    1.4997    0.0000 H       1  UNL1        0.0782
     35 H           7.4040    0.3450    0.0000 H       1  UNL1        0.0644
     36 H           6.0010   -0.2250    0.0000 H       1  UNL1        0.0938
     37 H           6.0010   -2.4650    0.0000 H       1  UNL1        0.0671
     38 H           4.5981   -2.6550    0.0000 H       1  UNL1        0.0648
     39 H           3.7320   -1.5350    0.0000 H       1  UNL1        0.0647
     40 H           4.2690   -0.2250    0.0000 H       1  UNL1        0.0647
     41 H           7.6790   -0.6471    0.0000 H       1  UNL1        0.0238
     42 H           7.7264   -1.5226    0.0000 H       1  UNL1        0.0238
     43 H           8.6019   -1.4752    0.0000 H       1  UNL1        0.0238
     44 H          10.0021    2.4650    0.0000 H       1  UNL1        0.0608
     45 H           5.4641    2.4650    0.0000 H       1  UNL1        0.0572
     46 H           7.3346    1.6800    0.0000 H       1  UNL1        0.0313
     47 H           8.1316    1.6800    0.0000 H       1  UNL1        0.0313
     48 H           3.8015    0.1299    0.0000 H       1  UNL1        0.0584
     49 H           3.0044    0.1299    0.0000 H       1  UNL1        0.0584
     50 H           7.2656    3.1300    0.0000 H       1  UNL1        0.0310
     51 H           6.4685    3.1300    0.0000 H       1  UNL1        0.0310
     52 H           4.8250    1.1919    0.0000 H       1  UNL1        0.0275
     53 H           4.5981    0.3450    0.0000 H       1  UNL1        0.0275
     54 H           5.4450    0.1181    0.0000 H       1  UNL1        0.0275
     55 H           6.8671   -2.9650    0.0000 H       1  UNL1        0.2101
     56 H           4.5981   -3.6550    0.0000 H       1  UNL1        0.2100
     57 H           3.4030   -2.9650    0.0000 H       1  UNL1        0.2100
     58 H           9.2191    3.6550    0.0000 H       1  UNL1        0.0274
     59 H           8.5991    4.2750    0.0000 H       1  UNL1        0.0274
     60 H           7.9791    3.6550    0.0000 H       1  UNL1        0.0274
     61 H           2.0000   -0.5350    0.0000 H       1  UNL1        0.2095
@<TRIPOS>BOND
     1    13     1    1
     2    14     1    1
     3     2    12    1
     4     2    17    1
     5     3    14    1
     6     3    19    1
     7    15     4    1
     8     4    55    1
     9    16     5    1
    10     5    56    1
    11    18     6    1
    12     6    57    1
    13     7    17    2
    14     8    26    1
    15     8    61    1
    16     9    10    1
    17     9    11    1
    18     9    12    1
    19     9    30    1
    20    10    13    1
    21    10    31    1
    22    10    32    1
    23    11    17    1
    24    11    21    1
    25    11    33    1
    26    12    22    1
    27    12    34    1
    28    13    20    1
    29    13    35    1
    30    14    15    1
    31    14    36    1
    32    15    16    1
    33    15    37    1
    34    16    18    1
    35    16    38    1
    36    18    19    1
    37    18    39    1
    38    19    26    1
    39    19    40    1
    40    20    24    2
    41    20    28    1
    42    21    41    1
    43    21    42    1
    44    21    43    1
    45    22    23    2
    46    22    44    1
    47    23    25    1
    48    23    29    1
    49    24    27    1
    50    24    45    1
    51    25    27    1
    52    25    46    1
    53    25    47    1
    54    26    48    1
    55    26    49    1
    56    27    50    1
    57    27    51    1
    58    28    52    1
    59    28    53    1
    60    28    54    1
    61    29    58    1
    62    29    59    1
    63    29    60    1
