@<TRIPOS>MOLECULE
IMPHY010293
 70 69 0 0 0
SMALL
GASTEIGER

@<TRIPOS>ATOM
      1 O           9.7942   -0.7500    0.0000 O.2     1  UNL1       -0.2974
      2 C          14.9904    0.2500    0.0000 C.3     1  UNL1       -0.0531
      3 C          14.1244    0.7500    0.0000 C.3     1  UNL1       -0.0531
      4 C          15.8564    0.7500    0.0000 C.3     1  UNL1       -0.0531
      5 C          13.2583    0.2500    0.0000 C.3     1  UNL1       -0.0530
      6 C          16.7224    0.2500    0.0000 C.3     1  UNL1       -0.0531
      7 C          12.3923    0.7500    0.0000 C.3     1  UNL1       -0.0527
      8 C          17.5885    0.7500    0.0000 C.3     1  UNL1       -0.0531
      9 C          11.5263    0.2500    0.0000 C.3     1  UNL1       -0.0464
     10 C           7.1962    0.7500    0.0000 C.3     1  UNL1       -0.0527
     11 C           6.3301    0.2500    0.0000 C.3     1  UNL1       -0.0530
     12 C          18.4545    0.2500    0.0000 C.3     1  UNL1       -0.0531
     13 C           8.0622    0.2500    0.0000 C.3     1  UNL1       -0.0464
     14 C          10.6603    0.7500    0.0000 C.3     1  UNL1        0.0058
     15 C           5.4641    0.7500    0.0000 C.3     1  UNL1       -0.0531
     16 C           8.9282    0.7500    0.0000 C.3     1  UNL1        0.0058
     17 C           4.5981    0.2500    0.0000 C.3     1  UNL1       -0.0531
     18 C          19.3205    0.7500    0.0000 C.3     1  UNL1       -0.0533
     19 C           9.7942    0.2500    0.0000 C.2     1  UNL1        0.1334
     20 C           3.7320    0.7500    0.0000 C.3     1  UNL1       -0.0533
     21 C          20.1865    0.2500    0.0000 C.3     1  UNL1       -0.0559
     22 C           2.8660    0.2500    0.0000 C.3     1  UNL1       -0.0559
     23 C          21.0526    0.7500    0.0000 C.3     1  UNL1       -0.0653
     24 C           2.0000    0.7500    0.0000 C.3     1  UNL1       -0.0653
     25 H          14.5919   -0.2249    0.0000 H       1  UNL1        0.0265
     26 H          15.3889   -0.2249    0.0000 H       1  UNL1        0.0265
     27 H          14.5229    1.2250    0.0000 H       1  UNL1        0.0265
     28 H          13.7258    1.2250    0.0000 H       1  UNL1        0.0265
     29 H          16.2549    1.2250    0.0000 H       1  UNL1        0.0265
     30 H          15.4579    1.2250    0.0000 H       1  UNL1        0.0265
     31 H          12.8598   -0.2249    0.0000 H       1  UNL1        0.0265
     32 H          13.6569   -0.2249    0.0000 H       1  UNL1        0.0265
     33 H          16.3239   -0.2249    0.0000 H       1  UNL1        0.0265
     34 H          17.1210   -0.2249    0.0000 H       1  UNL1        0.0265
     35 H          12.7908    1.2250    0.0000 H       1  UNL1        0.0265
     36 H          11.9938    1.2250    0.0000 H       1  UNL1        0.0265
     37 H          17.9870    1.2250    0.0000 H       1  UNL1        0.0265
     38 H          17.1899    1.2250    0.0000 H       1  UNL1        0.0265
     39 H          11.1278   -0.2249    0.0000 H       1  UNL1        0.0269
     40 H          11.9248   -0.2249    0.0000 H       1  UNL1        0.0269
     41 H           7.5947    1.2250    0.0000 H       1  UNL1        0.0265
     42 H           6.7976    1.2250    0.0000 H       1  UNL1        0.0265
     43 H           5.9316   -0.2249    0.0000 H       1  UNL1        0.0265
     44 H           6.7287   -0.2249    0.0000 H       1  UNL1        0.0265
     45 H          18.0560   -0.2249    0.0000 H       1  UNL1        0.0265
     46 H          18.8530   -0.2249    0.0000 H       1  UNL1        0.0265
     47 H           7.6636   -0.2249    0.0000 H       1  UNL1        0.0269
     48 H           8.4607   -0.2249    0.0000 H       1  UNL1        0.0269
     49 H          11.0588    1.2250    0.0000 H       1  UNL1        0.0342
     50 H          10.2617    1.2250    0.0000 H       1  UNL1        0.0342
     51 H           5.8626    1.2250    0.0000 H       1  UNL1        0.0265
     52 H           5.0656    1.2250    0.0000 H       1  UNL1        0.0265
     53 H           9.3267    1.2250    0.0000 H       1  UNL1        0.0342
     54 H           8.5297    1.2250    0.0000 H       1  UNL1        0.0342
     55 H           4.1996   -0.2249    0.0000 H       1  UNL1        0.0265
     56 H           4.9966   -0.2249    0.0000 H       1  UNL1        0.0265
     57 H          19.7190    1.2250    0.0000 H       1  UNL1        0.0265
     58 H          18.9220    1.2250    0.0000 H       1  UNL1        0.0265
     59 H           4.1306    1.2250    0.0000 H       1  UNL1        0.0265
     60 H           3.3335    1.2250    0.0000 H       1  UNL1        0.0265
     61 H          19.7880   -0.2249    0.0000 H       1  UNL1        0.0263
     62 H          20.5851   -0.2249    0.0000 H       1  UNL1        0.0263
     63 H           2.4675   -0.2249    0.0000 H       1  UNL1        0.0263
     64 H           3.2646   -0.2249    0.0000 H       1  UNL1        0.0263
     65 H          21.3626    0.2131    0.0000 H       1  UNL1        0.0230
     66 H          21.5895    1.0600    0.0000 H       1  UNL1        0.0230
     67 H          20.7426    1.2869    0.0000 H       1  UNL1        0.0230
     68 H           2.3100    1.2869    0.0000 H       1  UNL1        0.0230
     69 H           1.4631    1.0600    0.0000 H       1  UNL1        0.0230
     70 H           1.6900    0.2131    0.0000 H       1  UNL1        0.0230
@<TRIPOS>BOND
     1     1    19    2
     2     2     3    1
     3     2     4    1
     4     2    25    1
     5     2    26    1
     6     3     5    1
     7     3    27    1
     8     3    28    1
     9     4     6    1
    10     4    29    1
    11     4    30    1
    12     5     7    1
    13     5    31    1
    14     5    32    1
    15     6     8    1
    16     6    33    1
    17     6    34    1
    18     7     9    1
    19     7    35    1
    20     7    36    1
    21     8    12    1
    22     8    37    1
    23     8    38    1
    24     9    14    1
    25     9    39    1
    26     9    40    1
    27    10    11    1
    28    10    13    1
    29    10    41    1
    30    10    42    1
    31    11    15    1
    32    11    43    1
    33    11    44    1
    34    12    18    1
    35    12    45    1
    36    12    46    1
    37    13    16    1
    38    13    47    1
    39    13    48    1
    40    14    19    1
    41    14    49    1
    42    14    50    1
    43    15    17    1
    44    15    51    1
    45    15    52    1
    46    16    19    1
    47    16    53    1
    48    16    54    1
    49    17    20    1
    50    17    55    1
    51    17    56    1
    52    18    21    1
    53    18    57    1
    54    18    58    1
    55    20    22    1
    56    20    59    1
    57    20    60    1
    58    21    23    1
    59    21    61    1
    60    21    62    1
    61    22    24    1
    62    22    63    1
    63    22    64    1
    64    23    65    1
    65    23    66    1
    66    23    67    1
    67    24    68    1
    68    24    69    1
    69    24    70    1
