@<TRIPOS>MOLECULE
IMPHY009124
 55 58 0 0 0
SMALL
GASTEIGER

@<TRIPOS>ATOM
      1 O           4.8980    1.8233    0.0000 O.3     1  UNL1       -0.4602
      2 O           9.3465    1.5154    0.0000 O.3     1  UNL1       -0.3909
      3 O           3.3144    1.0186    0.0000 O.2     1  UNL1       -0.2505
      4 O           3.1976   -3.5878    0.0000 O.3     1  UNL1       -0.4795
      5 O           4.6991   -2.7244    0.0000 O.2     1  UNL1       -0.2492
      6 N           3.6089   -0.9429    0.0000 N.3     1  UNL1       -0.2892
      7 C           7.5763    1.5186    0.0000 C.3     1  UNL1        0.0041
      8 C           6.7103    2.0186    0.0000 C.3     1  UNL1        0.0250
      9 C           5.8443    0.5185    0.0000 C.3     1  UNL1        0.0108
     10 C           5.8443    1.5186    0.0000 C.3     1  UNL1        0.1137
     11 C           7.5763    0.5185    0.0000 C.3     1  UNL1       -0.0442
     12 C           6.7103    0.0185    0.0000 C.3     1  UNL1       -0.0454
     13 C           4.8980    0.2138    0.0000 C.3     1  UNL1        0.0753
     14 C           8.4863    2.0254    0.0000 C.3     1  UNL1        0.0647
     15 C           6.6942    3.0601    0.0000 C.2     1  UNL1       -0.0693
     16 C           8.4423    1.0186    0.0000 C.3     1  UNL1       -0.0565
     17 C           8.4943    3.0670    0.0000 C.3     1  UNL1       -0.0078
     18 C           4.5874   -0.7367    0.0000 C.3     1  UNL1        0.0130
     19 C           4.3144    1.0186    0.0000 C.2     1  UNL1        0.3121
     20 C           7.5923    3.5878    0.0000 C.2     1  UNL1       -0.0822
     21 C           5.8225    3.5500    0.0000 C.3     1  UNL1       -0.0434
     22 C           3.2006   -1.8558    0.0000 C.3     1  UNL1        0.1082
     23 C           2.8669   -0.2725    0.0000 C.3     1  UNL1       -0.0002
     24 C           2.2062   -1.7495    0.0000 C.3     1  UNL1       -0.0258
     25 C           2.0000   -0.7710    0.0000 C.3     1  UNL1       -0.0382
     26 C           3.6991   -2.7226    0.0000 C.2     1  UNL1        0.3221
     27 H           7.4431    2.4492    0.0000 H       1  UNL1        0.0388
     28 H           5.7543   -0.3267    0.0000 H       1  UNL1        0.0345
     29 H           5.7543    2.3638    0.0000 H       1  UNL1        0.0743
     30 H           7.7884   -0.0641    0.0000 H       1  UNL1        0.0272
     31 H           8.1869    0.6262    0.0000 H       1  UNL1        0.0272
     32 H           6.3118   -0.4564    0.0000 H       1  UNL1        0.0269
     33 H           7.1088   -0.4564    0.0000 H       1  UNL1        0.0269
     34 H           4.2856    0.1176    0.0000 H       1  UNL1        0.0430
     35 H           9.0262    2.3302    0.0000 H       1  UNL1        0.0602
     36 H           8.1323    0.4816    0.0000 H       1  UNL1        0.0236
     37 H           8.9793    0.7085    0.0000 H       1  UNL1        0.0236
     38 H           8.7523    1.5555    0.0000 H       1  UNL1        0.0236
     39 H           9.1044    2.9562    0.0000 H       1  UNL1        0.0332
     40 H           8.7079    3.6491    0.0000 H       1  UNL1        0.0332
     41 H           4.6080   -1.3564    0.0000 H       1  UNL1        0.0435
     42 H           5.2012   -0.8241    0.0000 H       1  UNL1        0.0435
     43 H           7.5899    4.2078    0.0000 H       1  UNL1        0.0572
     44 H           6.1262    4.0905    0.0000 H       1  UNL1        0.0274
     45 H           5.2820    3.8538    0.0000 H       1  UNL1        0.0274
     46 H           5.5187    3.0095    0.0000 H       1  UNL1        0.0274
     47 H           3.8198   -1.8244    0.0000 H       1  UNL1        0.0578
     48 H           9.8870    1.8192    0.0000 H       1  UNL1        0.2098
     49 H           3.3284    0.1416    0.0000 H       1  UNL1        0.0427
     50 H           2.5033    0.2297    0.0000 H       1  UNL1        0.0427
     51 H           1.5895   -1.8132    0.0000 H       1  UNL1        0.0286
     52 H           2.2052   -2.3695    0.0000 H       1  UNL1        0.0286
     53 H           1.7488   -0.2042    0.0000 H       1  UNL1        0.0278
     54 H           1.4100   -0.9616    0.0000 H       1  UNL1        0.0278
     55 H           2.5776   -3.5867    0.0000 H       1  UNL1        0.2951
@<TRIPOS>BOND
     1     1    10    1
     2     1    19    1
     3    14     2    1
     4     2    48    1
     5     3    19    2
     6     4    26    1
     7     4    55    1
     8     5    26    2
     9     6    18    1
    10     6    22    1
    11     6    23    1
    12     7     8    1
    13     7    11    1
    14     7    14    1
    15     7    16    1
    16     8    10    1
    17     8    15    1
    18     8    27    1
    19     9    10    1
    20     9    12    1
    21     9    13    1
    22     9    28    1
    23    10    29    1
    24    11    12    1
    25    11    30    1
    26    11    31    1
    27    12    32    1
    28    12    33    1
    29    13    18    1
    30    13    19    1
    31    13    34    1
    32    14    17    1
    33    14    35    1
    34    15    20    2
    35    15    21    1
    36    16    36    1
    37    16    37    1
    38    16    38    1
    39    17    20    1
    40    17    39    1
    41    17    40    1
    42    18    41    1
    43    18    42    1
    44    20    43    1
    45    21    44    1
    46    21    45    1
    47    21    46    1
    48    22    24    1
    49    22    26    1
    50    22    47    1
    51    23    25    1
    52    23    49    1
    53    23    50    1
    54    24    25    1
    55    24    51    1
    56    24    52    1
    57    25    53    1
    58    25    54    1
