@<TRIPOS>MOLECULE
IMPHY010268
 72 76 0 0 0
SMALL
GASTEIGER

@<TRIPOS>ATOM
      1 O           8.5991   -1.6725    0.0000 O.3     1  UNL1       -0.3609
      2 O           5.1350   -1.6725    0.0000 O.3     1  UNL1       -0.3313
      3 O           6.8671   -1.6725    0.0000 O.3     1  UNL1       -0.4602
      4 O           9.4651    0.8275    0.0000 O.3     1  UNL1       -0.3862
      5 O          11.1972   -0.1725    0.0000 O.3     1  UNL1       -0.3865
      6 O          11.1972   -2.1725    0.0000 O.3     1  UNL1       -0.3865
      7 O           5.1350   -4.6725    0.0000 O.3     1  UNL1       -0.3864
      8 O           6.8671   -3.6725    0.0000 O.3     1  UNL1       -0.3829
      9 O           3.4030   -3.6725    0.0000 O.3     1  UNL1       -0.3865
     10 O           8.6431    1.3343    0.0000 O.2     1  UNL1       -0.4540
     11 O          10.3312   -3.6725    0.0000 O.3     1  UNL1       -0.3924
     12 O           2.5369   -2.1725    0.0000 O.3     1  UNL1       -0.3924
     13 O           5.1350    1.3275    0.0000 O.3     1  UNL1       -0.5058
     14 O           5.9793    2.8589    0.0000 O.2     1  UNL1       -0.2869
     15 O          12.1229    4.3625    0.0000 O.3     1  UNL1       -0.5068
     16 C           8.5991   -0.6725    0.0000 C.3     1  UNL1        0.1193
     17 C           9.4651   -0.1725    0.0000 C.3     1  UNL1        0.1139
     18 C          10.3312   -0.6725    0.0000 C.3     1  UNL1        0.1121
     19 C          10.3312   -1.6725    0.0000 C.3     1  UNL1        0.1117
     20 C           9.4651   -2.1725    0.0000 C.3     1  UNL1        0.1108
     21 C           7.7331   -0.1725    0.0000 C.ar    1  UNL1        0.0685
     22 C           5.1350   -3.6725    0.0000 C.3     1  UNL1        0.1152
     23 C           6.0010   -3.1725    0.0000 C.3     1  UNL1        0.1454
     24 C           4.2690   -3.1725    0.0000 C.3     1  UNL1        0.1120
     25 C           6.0010   -2.1725    0.0000 C.3     1  UNL1        0.2308
     26 C           4.2690   -2.1725    0.0000 C.3     1  UNL1        0.1140
     27 C           6.8671   -0.6725    0.0000 C.ar    1  UNL1        0.1367
     28 C           9.4651   -3.1725    0.0000 C.3     1  UNL1        0.0729
     29 C           7.7331    0.8275    0.0000 C.ar    1  UNL1        0.1520
     30 C           3.4030   -1.6725    0.0000 C.3     1  UNL1        0.0731
     31 C           6.8671    1.3275    0.0000 C.ar    1  UNL1        0.1058
     32 C           6.0010   -0.1725    0.0000 C.ar    1  UNL1        0.0230
     33 C           6.0010    0.8275    0.0000 C.ar    1  UNL1        0.1347
     34 C           6.8510    2.3690    0.0000 C.ar    1  UNL1        0.1966
     35 C           8.6511    2.3759    0.0000 C.ar    1  UNL1        0.1392
     36 C           7.7490    2.8967    0.0000 C.ar    1  UNL1        0.0288
     37 C           9.5191    2.8726    0.0000 C.ar    1  UNL1        0.0176
     38 C          10.3832    2.3692    0.0000 C.ar    1  UNL1       -0.0476
     39 C           9.5229    3.8726    0.0000 C.ar    1  UNL1       -0.0476
     40 C          11.2511    2.8659    0.0000 C.ar    1  UNL1       -0.0195
     41 C          10.3909    4.3692    0.0000 C.ar    1  UNL1       -0.0195
     42 C          11.2550    3.8659    0.0000 C.ar    1  UNL1        0.1169
     43 H           8.5991    0.1775    0.0000 H       1  UNL1        0.0676
     44 H          10.0021    0.1375    0.0000 H       1  UNL1        0.0649
     45 H          10.8681   -0.9825    0.0000 H       1  UNL1        0.0647
     46 H          10.3312   -2.2925    0.0000 H       1  UNL1        0.0647
     47 H           8.9282   -2.4825    0.0000 H       1  UNL1        0.0646
     48 H           5.6720   -3.9825    0.0000 H       1  UNL1        0.0648
     49 H           6.5380   -2.8625    0.0000 H       1  UNL1        0.0683
     50 H           4.2690   -3.7925    0.0000 H       1  UNL1        0.0647
     51 H           6.0010   -1.5525    0.0000 H       1  UNL1        0.1084
     52 H           4.2690   -1.5525    0.0000 H       1  UNL1        0.0647
     53 H           8.8546   -3.0649    0.0000 H       1  UNL1        0.0584
     54 H           9.2531   -3.7552    0.0000 H       1  UNL1        0.0584
     55 H           3.8015   -1.1976    0.0000 H       1  UNL1        0.0584
     56 H           3.0044   -1.1976    0.0000 H       1  UNL1        0.0584
     57 H          10.0021    1.1375    0.0000 H       1  UNL1        0.2100
     58 H          11.7341   -0.4825    0.0000 H       1  UNL1        0.2100
     59 H          11.7341   -1.8625    0.0000 H       1  UNL1        0.2100
     60 H           5.4641   -0.4825    0.0000 H       1  UNL1        0.0691
     61 H           4.5981   -4.9825    0.0000 H       1  UNL1        0.2100
     62 H           6.8671   -4.2925    0.0000 H       1  UNL1        0.2102
     63 H           3.4030   -4.2925    0.0000 H       1  UNL1        0.2100
     64 H          10.3312   -4.2925    0.0000 H       1  UNL1        0.2095
     65 H           7.7466    3.5167    0.0000 H       1  UNL1        0.0693
     66 H           2.0000   -1.8625    0.0000 H       1  UNL1        0.2095
     67 H           4.5981    1.0175    0.0000 H       1  UNL1        0.2922
     68 H          10.3808    1.7492    0.0000 H       1  UNL1        0.0626
     69 H           8.9872    4.1846    0.0000 H       1  UNL1        0.0626
     70 H          11.7868    2.5538    0.0000 H       1  UNL1        0.0654
     71 H          10.3933    4.9892    0.0000 H       1  UNL1        0.0654
     72 H          12.1253    4.9825    0.0000 H       1  UNL1        0.2921
@<TRIPOS>BOND
     1     1    16    1
     2     1    20    1
     3     2    25    1
     4     2    26    1
     5    25     3    1
     6     3    27    1
     7     4    17    1
     8     4    57    1
     9    18     5    1
    10     5    58    1
    11    19     6    1
    12     6    59    1
    13    22     7    1
    14     7    61    1
    15     8    23    1
    16     8    62    1
    17    24     9    1
    18     9    63    1
    19    10    29   ar
    20    10    35   ar
    21    11    28    1
    22    11    64    1
    23    12    30    1
    24    12    66    1
    25    13    33    1
    26    13    67    1
    27    14    34    2
    28    15    42    1
    29    15    72    1
    30    16    17    1
    31    16    21    1
    32    16    43    1
    33    17    18    1
    34    17    44    1
    35    18    19    1
    36    18    45    1
    37    19    20    1
    38    19    46    1
    39    20    28    1
    40    20    47    1
    41    21    27   ar
    42    21    29   ar
    43    22    23    1
    44    22    24    1
    45    22    48    1
    46    23    25    1
    47    23    49    1
    48    24    26    1
    49    24    50    1
    50    25    51    1
    51    26    30    1
    52    26    52    1
    53    27    32   ar
    54    28    53    1
    55    28    54    1
    56    29    31   ar
    57    30    55    1
    58    30    56    1
    59    31    33   ar
    60    31    34   ar
    61    32    33   ar
    62    32    60    1
    63    34    36   ar
    64    35    36   ar
    65    35    37    1
    66    36    65    1
    67    37    38   ar
    68    37    39   ar
    69    38    40   ar
    70    38    68    1
    71    39    41   ar
    72    39    69    1
    73    40    42   ar
    74    40    70    1
    75    41    42   ar
    76    41    71    1
