@<TRIPOS>MOLECULE
IMPHY008661
 68 73 0 0 0
SMALL
GASTEIGER

@<TRIPOS>ATOM
      1 O           4.3217   -0.1721    0.0000 O.3     1  UNL1       -0.4811
      2 O           6.9198   -0.6721    0.0000 O.3     1  UNL1       -0.3868
      3 O          10.4518    1.3071    0.0000 O.3     1  UNL1       -0.3643
      4 O           7.7858   -0.1721    0.0000 O.3     1  UNL1       -0.5060
      5 O           9.5342    3.8625    0.0000 O.3     1  UNL1       -0.3842
      6 O           6.5778    3.2676    0.0000 O.3     1  UNL1       -0.5063
      7 O           5.5567    3.3051    0.0000 O.3     1  UNL1       -0.5062
      8 O           2.5357    2.8730    0.0000 O.3     1  UNL1       -0.5065
      9 O           3.4557   -3.6721    0.0000 O.3     1  UNL1       -0.5033
     10 O           5.1877   -4.6721    0.0000 O.3     1  UNL1       -0.5033
     11 O          13.9159    2.3621    0.0000 O.3     1  UNL1       -0.5033
     12 O          13.9082    4.3621    0.0000 O.3     1  UNL1       -0.5033
     13 C           6.0538    0.8279    0.0000 C.3     1  UNL1        0.0528
     14 C           6.0538   -0.1721    0.0000 C.3     1  UNL1        0.1074
     15 C           5.1877   -0.6721    0.0000 C.3     1  UNL1        0.1518
     16 C           6.9198    1.3279    0.0000 C.ar    1  UNL1        0.0459
     17 C           5.1877    1.3279    0.0000 C.ar    1  UNL1        0.0461
     18 C           8.6518    1.3279    0.0000 C.ar    1  UNL1        0.0257
     19 C           8.6518    2.3279    0.0000 C.ar    1  UNL1       -0.0041
     20 C           7.7858    0.8279    0.0000 C.ar    1  UNL1        0.1299
     21 C           9.5458    2.8626    0.0000 C.3     1  UNL1        0.1109
     22 C           4.3217    0.8279    0.0000 C.ar    1  UNL1        0.1323
     23 C          10.4518    2.3487    0.0000 C.3     1  UNL1        0.1141
     24 C           6.9198    2.3279    0.0000 C.ar    1  UNL1        0.1245
     25 C           5.1877   -1.6721    0.0000 C.ar    1  UNL1       -0.0012
     26 C           9.5458    0.7933    0.0000 C.3     1  UNL1        0.0774
     27 C           7.7858    2.8279    0.0000 C.ar    1  UNL1       -0.0136
     28 C           5.2038    2.3694    0.0000 C.ar    1  UNL1        0.1276
     29 C           3.4117    1.3348    0.0000 C.ar    1  UNL1        0.0221
     30 C          11.3159    2.8521    0.0000 C.ar    1  UNL1       -0.0124
     31 C           4.3058    2.8972    0.0000 C.ar    1  UNL1        0.0218
     32 C           4.3217   -2.1721    0.0000 C.ar    1  UNL1       -0.0098
     33 C           6.0538   -2.1721    0.0000 C.ar    1  UNL1       -0.0513
     34 C           3.4037    2.3764    0.0000 C.ar    1  UNL1        0.1238
     35 C          12.1839    2.3554    0.0000 C.ar    1  UNL1       -0.0108
     36 C          11.3121    3.8521    0.0000 C.ar    1  UNL1       -0.0523
     37 C           4.3217   -3.1721    0.0000 C.ar    1  UNL1        0.1586
     38 C           6.0538   -3.1721    0.0000 C.ar    1  UNL1       -0.0162
     39 C           5.1877   -3.6721    0.0000 C.ar    1  UNL1        0.1582
     40 C          13.0480    2.8588    0.0000 C.ar    1  UNL1        0.1586
     41 C          12.1762    4.3554    0.0000 C.ar    1  UNL1       -0.0162
     42 C          13.0441    3.8587    0.0000 C.ar    1  UNL1        0.1582
     43 H           6.7899    0.4029    0.0000 H       1  UNL1        0.0429
     44 H           6.0538   -0.7921    0.0000 H       1  UNL1        0.0643
     45 H           4.6508   -0.9821    0.0000 H       1  UNL1        0.0811
     46 H          10.0797    3.1778    0.0000 H       1  UNL1        0.0673
     47 H          10.4483    2.9687    0.0000 H       1  UNL1        0.0676
     48 H           9.1412    0.3235    0.0000 H       1  UNL1        0.0611
     49 H           9.9394    0.3142    0.0000 H       1  UNL1        0.0611
     50 H           7.7858    3.4479    0.0000 H       1  UNL1        0.0658
     51 H           6.9198   -1.2921    0.0000 H       1  UNL1        0.2100
     52 H           2.8784    1.0186    0.0000 H       1  UNL1        0.0691
     53 H           4.3082    3.5172    0.0000 H       1  UNL1        0.0691
     54 H           3.7848   -1.8621    0.0000 H       1  UNL1        0.0659
     55 H           6.5907   -1.8621    0.0000 H       1  UNL1        0.0623
     56 H           8.3227   -0.4821    0.0000 H       1  UNL1        0.2922
     57 H           8.9937    4.1663    0.0000 H       1  UNL1        0.2104
     58 H           6.9763    3.7426    0.0000 H       1  UNL1        0.2921
     59 H          12.1863    1.7354    0.0000 H       1  UNL1        0.0659
     60 H          10.7740    4.1600    0.0000 H       1  UNL1        0.0622
     61 H           5.1636    3.7846    0.0000 H       1  UNL1        0.2921
     62 H           6.5907   -3.4821    0.0000 H       1  UNL1        0.0655
     63 H          12.1738    4.9754    0.0000 H       1  UNL1        0.0655
     64 H           2.0000    2.5610    0.0000 H       1  UNL1        0.2921
     65 H           3.4557   -4.2921    0.0000 H       1  UNL1        0.2923
     66 H           5.7247   -4.9821    0.0000 H       1  UNL1        0.2923
     67 H          14.4517    2.6742    0.0000 H       1  UNL1        0.2923
     68 H          13.9058    4.9821    0.0000 H       1  UNL1        0.2923
@<TRIPOS>BOND
     1     1    15    1
     2     1    22    1
     3     2    14    1
     4     2    51    1
     5     3    23    1
     6     3    26    1
     7     4    20    1
     8     4    56    1
     9    21     5    1
    10     5    57    1
    11     6    24    1
    12     6    58    1
    13     7    28    1
    14     7    61    1
    15     8    34    1
    16     8    64    1
    17     9    37    1
    18     9    65    1
    19    10    39    1
    20    10    66    1
    21    11    40    1
    22    11    67    1
    23    12    42    1
    24    12    68    1
    25    13    14    1
    26    13    16    1
    27    13    17    1
    28    13    43    1
    29    14    15    1
    30    14    44    1
    31    15    25    1
    32    15    45    1
    33    16    20   ar
    34    16    24   ar
    35    17    22   ar
    36    17    28   ar
    37    18    19   ar
    38    18    20   ar
    39    18    26    1
    40    19    21    1
    41    19    27   ar
    42    21    23    1
    43    21    46    1
    44    22    29   ar
    45    23    30    1
    46    23    47    1
    47    24    27   ar
    48    25    32   ar
    49    25    33   ar
    50    26    48    1
    51    26    49    1
    52    27    50    1
    53    28    31   ar
    54    29    34   ar
    55    29    52    1
    56    30    35   ar
    57    30    36   ar
    58    31    34   ar
    59    31    53    1
    60    32    37   ar
    61    32    54    1
    62    33    38   ar
    63    33    55    1
    64    35    40   ar
    65    35    59    1
    66    36    41   ar
    67    36    60    1
    68    37    39   ar
    69    38    39   ar
    70    38    62    1
    71    40    42   ar
    72    41    42   ar
    73    41    63    1
