@<TRIPOS>MOLECULE
IMPHY000197
 85 91 0 0 0
SMALL
GASTEIGER

@<TRIPOS>ATOM
      1 O           6.7295    1.6646    0.0000 O.3     1  UNL1       -0.4482
      2 O           5.5084    0.4387    0.0000 O.3     1  UNL1       -0.4914
      3 O           8.4261    3.5908    0.0000 O.3     1  UNL1       -0.4913
      4 O           6.6941    2.5908    0.0000 O.3     1  UNL1       -0.5009
      5 O           5.7658   -4.0908    0.0000 O.3     1  UNL1       -0.4523
      6 O           5.1334   -3.2083    0.0000 O.3     1  UNL1       -0.4914
      7 N           9.3081   -0.9785    0.0000 N.3     1  UNL1       -0.2977
      8 N           3.4363   -0.6212    0.0000 N.3     1  UNL1       -0.2978
      9 C           8.4101   -0.4507    0.0000 C.3     1  UNL1        0.0432
     10 C           2.5859   -0.0882    0.0000 C.3     1  UNL1        0.0397
     11 C           8.4261    0.5908    0.0000 C.ar    1  UNL1        0.0193
     12 C          10.2102   -0.4577    0.0000 C.3     1  UNL1        0.0032
     13 C           3.0706    0.7974    0.0000 C.ar    1  UNL1       -0.0231
     14 C           9.2922    1.0908    0.0000 C.ar    1  UNL1       -0.0343
     15 C          10.2022    0.5839    0.0000 C.3     1  UNL1       -0.0143
     16 C           8.4520   -1.4594    0.0000 C.3     1  UNL1       -0.0076
     17 C           4.3548   -0.2164    0.0000 C.3     1  UNL1        0.0032
     18 C           3.8194    1.4744    0.0000 C.ar    1  UNL1       -0.0378
     19 C           4.5352    0.7709    0.0000 C.3     1  UNL1       -0.0144
     20 C           2.4192   -1.0838    0.0000 C.3     1  UNL1       -0.0079
     21 C           7.5601    1.0908    0.0000 C.ar    1  UNL1        0.1784
     22 C           4.0660    0.9025    0.0000 C.ar    1  UNL1       -0.0113
     23 C           4.7492    1.8677    0.0000 C.ar    1  UNL1       -0.0121
     24 C           9.3043   -1.9785    0.0000 C.3     1  UNL1       -0.0122
     25 C           9.2922    2.0908    0.0000 C.ar    1  UNL1       -0.0125
     26 C           5.7565    1.9335    0.0000 C.ar    1  UNL1        0.1703
     27 C           8.1601   -2.4257    0.0000 C.ar    1  UNL1       -0.0419
     28 C           3.3640   -1.6185    0.0000 C.3     1  UNL1       -0.0122
     29 C           7.5601    2.0908    0.0000 C.ar    1  UNL1        0.2020
     30 C           4.9878    1.2925    0.0000 C.ar    1  UNL1        0.1624
     31 C           2.5890   -2.0789    0.0000 C.ar    1  UNL1       -0.0453
     32 C           8.4261    2.5908    0.0000 C.ar    1  UNL1        0.1653
     33 C           7.5668   -3.2425    0.0000 C.ar    1  UNL1       -0.0124
     34 C           7.3843   -1.7890    0.0000 C.ar    1  UNL1       -0.0548
     35 C           3.4958   -2.5026    0.0000 C.ar    1  UNL1       -0.0550
     36 C           3.0764   -2.9630    0.0000 C.ar    1  UNL1       -0.0550
     37 C           6.7380   -3.8188    0.0000 C.ar    1  UNL1        0.1701
     38 C           6.4219   -2.0737    0.0000 C.ar    1  UNL1       -0.0160
     39 C           4.7583   -4.0281    0.0000 C.ar    1  UNL1        0.1286
     40 C           4.2403   -3.1716    0.0000 C.ar    1  UNL1       -0.0191
     41 C           3.8273   -3.6377    0.0000 C.ar    1  UNL1       -0.0191
     42 C           6.1174   -3.0301    0.0000 C.ar    1  UNL1        0.1621
     43 C           6.5082    0.4627    0.0000 C.3     1  UNL1        0.0790
     44 C           9.2922    4.0908    0.0000 C.3     1  UNL1        0.0790
     45 C           4.4870   -2.4453    0.0000 C.3     1  UNL1        0.0790
     46 H           7.5602   -0.4618    0.0000 H       1  UNL1        0.0516
     47 H           1.7827    0.1900    0.0000 H       1  UNL1        0.0515
     48 H          10.4237   -1.0397    0.0000 H       1  UNL1        0.0430
     49 H          10.8202   -0.3469    0.0000 H       1  UNL1        0.0430
     50 H          10.8138    0.4826    0.0000 H       1  UNL1        0.0326
     51 H          10.4067    1.1692    0.0000 H       1  UNL1        0.0326
     52 H           8.9241   -1.8613    0.0000 H       1  UNL1        0.0332
     53 H           7.8369   -1.3815    0.0000 H       1  UNL1        0.0332
     54 H           4.4879   -0.8220    0.0000 H       1  UNL1        0.0430
     55 H           4.9746   -0.2054    0.0000 H       1  UNL1        0.0430
     56 H           5.1111    0.5412    0.0000 H       1  UNL1        0.0326
     57 H           4.8740    1.2901    0.0000 H       1  UNL1        0.0326
     58 H           1.8998   -0.7451    0.0000 H       1  UNL1        0.0332
     59 H           3.0391   -1.0829    0.0000 H       1  UNL1        0.0332
     60 H           4.2210    0.3022    0.0000 H       1  UNL1        0.0659
     61 H           4.6062    2.4709    0.0000 H       1  UNL1        0.0658
     62 H           8.6843   -1.9761    0.0000 H       1  UNL1        0.0391
     63 H           9.3019   -2.5985    0.0000 H       1  UNL1        0.0391
     64 H           9.9242   -1.9809    0.0000 H       1  UNL1        0.0391
     65 H           9.8291    2.4008    0.0000 H       1  UNL1        0.0658
     66 H           2.7456   -1.5737    0.0000 H       1  UNL1        0.0391
     67 H           3.3192   -2.2369    0.0000 H       1  UNL1        0.0391
     68 H           3.9824   -1.6634    0.0000 H       1  UNL1        0.0391
     69 H           8.0007   -3.6854    0.0000 H       1  UNL1        0.0658
     70 H           7.5074   -1.1813    0.0000 H       1  UNL1        0.0621
     71 H           3.8379   -1.9856    0.0000 H       1  UNL1        0.0621
     72 H           2.5909   -3.3486    0.0000 H       1  UNL1        0.0621
     73 H           5.9880   -1.6308    0.0000 H       1  UNL1        0.0655
     74 H           4.7180   -2.7763    0.0000 H       1  UNL1        0.0654
     75 H           3.4956   -4.1615    0.0000 H       1  UNL1        0.0654
     76 H           6.6941    3.2108    0.0000 H       1  UNL1        0.2924
     77 H           6.5231   -0.1571    0.0000 H       1  UNL1        0.0660
     78 H           7.1280    0.4776    0.0000 H       1  UNL1        0.0660
     79 H           6.4933    1.0825    0.0000 H       1  UNL1        0.0660
     80 H           9.6022    3.5538    0.0000 H       1  UNL1        0.0660
     81 H           9.8291    4.4008    0.0000 H       1  UNL1        0.0660
     82 H           8.9822    4.6277    0.0000 H       1  UNL1        0.0660
     83 H           4.9601   -2.0446    0.0000 H       1  UNL1        0.0660
     84 H           4.0863   -1.9722    0.0000 H       1  UNL1        0.0660
     85 H           4.0140   -2.8460    0.0000 H       1  UNL1        0.0660
@<TRIPOS>BOND
     1     1    21    1
     2     1    26    1
     3     2    30    1
     4     2    43    1
     5     3    32    1
     6     3    44    1
     7     4    29    1
     8     4    76    1
     9     5    37    1
    10     5    39    1
    11     6    42    1
    12     6    45    1
    13     7     9    1
    14     7    12    1
    15     7    24    1
    16     8    10    1
    17     8    17    1
    18     8    28    1
    19     9    11    1
    20     9    16    1
    21     9    46    1
    22    10    13    1
    23    10    20    1
    24    10    47    1
    25    11    14   ar
    26    11    21   ar
    27    12    15    1
    28    12    48    1
    29    12    49    1
    30    13    18   ar
    31    13    22   ar
    32    14    15    1
    33    14    25   ar
    34    15    50    1
    35    15    51    1
    36    16    27    1
    37    16    52    1
    38    16    53    1
    39    17    19    1
    40    17    54    1
    41    17    55    1
    42    18    19    1
    43    18    23   ar
    44    19    56    1
    45    19    57    1
    46    20    31    1
    47    20    58    1
    48    20    59    1
    49    21    29   ar
    50    22    30   ar
    51    22    60    1
    52    23    26   ar
    53    23    61    1
    54    24    62    1
    55    24    63    1
    56    24    64    1
    57    25    32   ar
    58    25    65    1
    59    26    30   ar
    60    27    33   ar
    61    27    34   ar
    62    28    66    1
    63    28    67    1
    64    28    68    1
    65    29    32   ar
    66    31    35   ar
    67    31    36   ar
    68    33    37   ar
    69    33    69    1
    70    34    38   ar
    71    34    70    1
    72    35    40   ar
    73    35    71    1
    74    36    41   ar
    75    36    72    1
    76    37    42   ar
    77    38    42   ar
    78    38    73    1
    79    39    40   ar
    80    39    41   ar
    81    40    74    1
    82    41    75    1
    83    43    77    1
    84    43    78    1
    85    43    79    1
    86    44    80    1
    87    44    81    1
    88    44    82    1
    89    45    83    1
    90    45    84    1
    91    45    85    1
