@<TRIPOS>MOLECULE
IMPHY017343
 35 34 0 0 0
SMALL
GASTEIGER

@<TRIPOS>ATOM
      1 O           7.1962    0.7500    0.0000 O.3     1  UNL1       -0.4616
      2 O           8.0622   -0.7500    0.0000 O.2     1  UNL1       -0.2508
      3 C           5.4641    0.7500    0.0000 C.3     1  UNL1       -0.0159
      4 C           4.5981    0.2500    0.0000 C.3     1  UNL1       -0.0497
      5 C           6.3301    0.2500    0.0000 C.3     1  UNL1        0.1003
      6 C           3.7320    0.7500    0.0000 C.3     1  UNL1       -0.0532
      7 C           2.8660    0.2500    0.0000 C.3     1  UNL1       -0.0559
      8 C           6.3301   -0.7500    0.0000 C.3     1  UNL1       -0.0277
      9 C           2.0000    0.7500    0.0000 C.3     1  UNL1       -0.0653
     10 C           8.9282    0.7500    0.0000 C.3     1  UNL1        0.0447
     11 C           8.0622    0.2500    0.0000 C.2     1  UNL1        0.3073
     12 C           9.7942    0.2500    0.0000 C.3     1  UNL1       -0.0458
     13 C          10.6603    0.7500    0.0000 C.3     1  UNL1       -0.0648
     14 H           5.8626    1.2250    0.0000 H       1  UNL1        0.0301
     15 H           5.0656    1.2250    0.0000 H       1  UNL1        0.0301
     16 H           4.1996   -0.2249    0.0000 H       1  UNL1        0.0266
     17 H           4.9966   -0.2249    0.0000 H       1  UNL1        0.0266
     18 H           7.0662   -0.1750    0.0000 H       1  UNL1        0.0731
     19 H           4.1306    1.2250    0.0000 H       1  UNL1        0.0265
     20 H           3.3335    1.2250    0.0000 H       1  UNL1        0.0265
     21 H           2.4675   -0.2249    0.0000 H       1  UNL1        0.0263
     22 H           3.2646   -0.2249    0.0000 H       1  UNL1        0.0263
     23 H           5.7101   -0.7500    0.0000 H       1  UNL1        0.0265
     24 H           6.3301   -1.3700    0.0000 H       1  UNL1        0.0265
     25 H           6.9501   -0.7500    0.0000 H       1  UNL1        0.0265
     26 H           2.3100    1.2869    0.0000 H       1  UNL1        0.0230
     27 H           1.4631    1.0600    0.0000 H       1  UNL1        0.0230
     28 H           1.6900    0.2131    0.0000 H       1  UNL1        0.0230
     29 H           9.3267    1.2250    0.0000 H       1  UNL1        0.0377
     30 H           8.5297    1.2250    0.0000 H       1  UNL1        0.0377
     31 H           9.3957   -0.2249    0.0000 H       1  UNL1        0.0268
     32 H          10.1928   -0.2249    0.0000 H       1  UNL1        0.0268
     33 H          10.9703    0.2131    0.0000 H       1  UNL1        0.0230
     34 H          11.1972    1.0600    0.0000 H       1  UNL1        0.0230
     35 H          10.3503    1.2869    0.0000 H       1  UNL1        0.0230
@<TRIPOS>BOND
     1     1     5    1
     2     1    11    1
     3     2    11    2
     4     3     4    1
     5     3     5    1
     6     3    14    1
     7     3    15    1
     8     4     6    1
     9     4    16    1
    10     4    17    1
    11     5     8    1
    12     5    18    1
    13     6     7    1
    14     6    19    1
    15     6    20    1
    16     7     9    1
    17     7    21    1
    18     7    22    1
    19     8    23    1
    20     8    24    1
    21     8    25    1
    22     9    26    1
    23     9    27    1
    24     9    28    1
    25    10    11    1
    26    10    12    1
    27    10    29    1
    28    10    30    1
    29    12    13    1
    30    12    31    1
    31    12    32    1
    32    13    33    1
    33    13    34    1
    34    13    35    1
