@<TRIPOS>MOLECULE
IMPHY004931
 42 47 0 0 0
SMALL
GASTEIGER

@<TRIPOS>ATOM
      1 O           5.7960    2.5612    0.0000 O.3     1  UNL1       -0.4563
      2 O           2.8660    1.4864    0.0000 O.3     1  UNL1       -0.4937
      3 O           3.4982   -3.0952    0.0000 O.3     1  UNL1       -0.4526
      4 O           2.0463   -2.2569    0.0000 O.3     1  UNL1       -0.4526
      5 O           9.0084   -0.2089    0.0000 O.3     1  UNL1       -0.4526
      6 O           9.0084   -1.8184    0.0000 O.3     1  UNL1       -0.4526
      7 O           4.1394    3.2025    0.0000 O.2     1  UNL1       -0.2448
      8 C           5.4641   -0.0136    0.0000 C.ar    1  UNL1       -0.0025
      9 C           5.4641    0.9864    0.0000 C.ar    1  UNL1        0.0155
     10 C           4.5981   -0.5136    0.0000 C.ar    1  UNL1       -0.0026
     11 C           3.7320   -0.0136    0.0000 C.ar    1  UNL1        0.0289
     12 C           4.5981    1.4864    0.0000 C.ar    1  UNL1        0.1081
     13 C           3.7320    0.9864    0.0000 C.ar    1  UNL1        0.1422
     14 C           6.2011    1.6535    0.0000 C.3     1  UNL1        0.1193
     15 C           6.3301   -0.5136    0.0000 C.ar    1  UNL1       -0.0132
     16 C           4.6141   -1.5551    0.0000 C.ar    1  UNL1       -0.0077
     17 C           2.8220   -0.5205    0.0000 C.ar    1  UNL1       -0.0049
     18 C           3.7161   -2.0829    0.0000 C.ar    1  UNL1        0.1668
     19 C           2.8140   -1.5621    0.0000 C.ar    1  UNL1        0.1669
     20 C           4.8073    2.4582    0.0000 C.2     1  UNL1        0.3435
     21 C           7.1962   -0.0136    0.0000 C.ar    1  UNL1       -0.0084
     22 C           6.3301   -1.5136    0.0000 C.ar    1  UNL1       -0.0503
     23 C           8.0622   -0.5136    0.0000 C.ar    1  UNL1        0.1668
     24 C           8.0622   -1.5136    0.0000 C.ar    1  UNL1        0.1663
     25 C           7.1962   -2.0136    0.0000 C.ar    1  UNL1       -0.0156
     26 C           2.4683   -3.2025    0.0000 C.3     1  UNL1        0.2332
     27 C           9.5920   -1.0136    0.0000 C.3     1  UNL1        0.2332
     28 C           2.0000    0.9864    0.0000 C.3     1  UNL1        0.0788
     29 H           6.5666    1.1526    0.0000 H       1  UNL1        0.0749
     30 H           6.7376    1.9642    0.0000 H       1  UNL1        0.0749
     31 H           5.1546   -1.8589    0.0000 H       1  UNL1        0.0662
     32 H           2.2887   -0.2043    0.0000 H       1  UNL1        0.0663
     33 H           7.1962    0.6064    0.0000 H       1  UNL1        0.0661
     34 H           5.7932   -1.8236    0.0000 H       1  UNL1        0.0625
     35 H           7.1962   -2.6336    0.0000 H       1  UNL1        0.0655
     36 H           1.8787   -3.3943    0.0000 H       1  UNL1        0.1166
     37 H           2.5970   -3.8090    0.0000 H       1  UNL1        0.1166
     38 H          10.0529   -1.4284    0.0000 H       1  UNL1        0.1166
     39 H          10.0529   -0.5989    0.0000 H       1  UNL1        0.1166
     40 H           1.6900    1.5233    0.0000 H       1  UNL1        0.0660
     41 H           1.4631    0.6764    0.0000 H       1  UNL1        0.0660
     42 H           2.3100    0.4494    0.0000 H       1  UNL1        0.0660
@<TRIPOS>BOND
     1     1    14    1
     2     1    20    1
     3     2    13    1
     4     2    28    1
     5     3    18    1
     6     3    26    1
     7     4    19    1
     8     4    26    1
     9     5    23    1
    10     5    27    1
    11     6    24    1
    12     6    27    1
    13     7    20    2
    14     8     9   ar
    15     8    10   ar
    16     8    15    1
    17     9    12   ar
    18     9    14    1
    19    10    11   ar
    20    10    16   ar
    21    11    13   ar
    22    11    17   ar
    23    12    13   ar
    24    12    20    1
    25    14    29    1
    26    14    30    1
    27    15    21   ar
    28    15    22   ar
    29    16    18   ar
    30    16    31    1
    31    17    19   ar
    32    17    32    1
    33    18    19   ar
    34    21    23   ar
    35    21    33    1
    36    22    25   ar
    37    22    34    1
    38    23    24   ar
    39    24    25   ar
    40    25    35    1
    41    26    36    1
    42    26    37    1
    43    27    38    1
    44    27    39    1
    45    28    40    1
    46    28    41    1
    47    28    42    1
