@<TRIPOS>MOLECULE
IMPHY011990
 34 36 0 0 0
SMALL
GASTEIGER

@<TRIPOS>ATOM
      1 O           6.0682   -0.6154    0.0000 O.3     1  UNL1       -0.4811
      2 O           7.8003    1.3846    0.0000 O.3     1  UNL1       -0.3875
      3 O           4.3198    2.4192    0.0000 O.3     1  UNL1       -0.5063
      4 O           2.5381   -0.6395    0.0000 O.3     1  UNL1       -0.5065
      5 O          10.3984   -2.1154    0.0000 O.3     1  UNL1       -0.5068
      6 C           6.9343    0.8846    0.0000 C.3     1  UNL1        0.1004
      7 C           6.9343   -0.1154    0.0000 C.3     1  UNL1        0.1512
      8 C           6.0682    1.3846    0.0000 C.3     1  UNL1        0.0092
      9 C           5.2022    0.8846    0.0000 C.ar    1  UNL1        0.0384
     10 C           5.2022   -0.1154    0.0000 C.ar    1  UNL1        0.1317
     11 C           7.8003   -0.6154    0.0000 C.ar    1  UNL1       -0.0046
     12 C           4.3083    1.4193    0.0000 C.ar    1  UNL1        0.1270
     13 C           4.3083   -0.6501    0.0000 C.ar    1  UNL1        0.0221
     14 C           7.8003   -1.6154    0.0000 C.ar    1  UNL1       -0.0515
     15 C           8.6663   -0.1154    0.0000 C.ar    1  UNL1       -0.0515
     16 C           3.4022    0.9054    0.0000 C.ar    1  UNL1        0.0218
     17 C           3.4022   -0.1362    0.0000 C.ar    1  UNL1        0.1238
     18 C           8.6663   -2.1154    0.0000 C.ar    1  UNL1       -0.0198
     19 C           9.5323   -0.6154    0.0000 C.ar    1  UNL1       -0.0198
     20 C           9.5323   -1.6154    0.0000 C.ar    1  UNL1        0.1169
     21 H           6.9343    1.5046    0.0000 H       1  UNL1        0.0637
     22 H           6.9343   -0.7354    0.0000 H       1  UNL1        0.0811
     23 H           6.4668    1.8596    0.0000 H       1  UNL1        0.0342
     24 H           5.6697    1.8596    0.0000 H       1  UNL1        0.0342
     25 H           4.3154   -1.2700    0.0000 H       1  UNL1        0.0691
     26 H           7.8003    2.0046    0.0000 H       1  UNL1        0.2100
     27 H           7.2634   -1.9254    0.0000 H       1  UNL1        0.0623
     28 H           8.6663    0.5046    0.0000 H       1  UNL1        0.0623
     29 H           2.8665    1.2175    0.0000 H       1  UNL1        0.0691
     30 H           8.6663   -2.7354    0.0000 H       1  UNL1        0.0654
     31 H          10.0693   -0.3054    0.0000 H       1  UNL1        0.0654
     32 H           3.7865    2.7354    0.0000 H       1  UNL1        0.2921
     33 H           2.0000   -0.3316    0.0000 H       1  UNL1        0.2921
     34 H          10.3984   -2.7354    0.0000 H       1  UNL1        0.2921
@<TRIPOS>BOND
     1     1     7    1
     2     1    10    1
     3     6     2    1
     4     2    26    1
     5     3    12    1
     6     3    32    1
     7     4    17    1
     8     4    33    1
     9     5    20    1
    10     5    34    1
    11     6     7    1
    12     6     8    1
    13     6    21    1
    14     7    11    1
    15     7    22    1
    16     8     9    1
    17     8    23    1
    18     8    24    1
    19     9    10   ar
    20     9    12   ar
    21    10    13   ar
    22    11    14   ar
    23    11    15   ar
    24    12    16   ar
    25    13    17   ar
    26    13    25    1
    27    14    18   ar
    28    14    27    1
    29    15    19   ar
    30    15    28    1
    31    16    17   ar
    32    16    29    1
    33    18    20   ar
    34    18    30    1
    35    19    20   ar
    36    19    31    1
