@<TRIPOS>MOLECULE
IMPHY013161
 70 76 0 0 0
SMALL
GASTEIGER

@<TRIPOS>ATOM
      1 O           5.4798   -1.7756    0.0000 O.3     1  UNL1       -0.3512
      2 O           3.3913    1.8951    0.0000 O.3     1  UNL1       -0.3690
      3 O           8.1744   -2.3172    0.0000 O.3     1  UNL1       -0.4539
      4 O           6.1958    2.0702    0.0000 O.3     1  UNL1       -0.4639
      5 O           2.8602   -1.2929    0.0000 O.3     1  UNL1       -0.4534
      6 O           4.6420   -2.3034    0.0000 O.2     1  UNL1       -0.2928
      7 O           7.2685   -3.8380    0.0000 O.2     1  UNL1       -0.2478
      8 O           6.1084    3.8380    0.0000 O.2     1  UNL1       -0.2508
      9 O          10.6053   -0.4109    0.0000 O.2     1  UNL1       -0.4706
     10 O           3.7320   -2.7896    0.0000 O.2     1  UNL1       -0.2511
     11 C           6.3904   -1.2688    0.0000 C.3     1  UNL1        0.1284
     12 C           5.5243   -0.7688    0.0000 C.3     1  UNL1        0.0659
     13 C           5.5243    0.2312    0.0000 C.3     1  UNL1       -0.0144
     14 C           4.6304    0.7659    0.0000 C.3     1  UNL1        0.0446
     15 C           7.2564   -0.7688    0.0000 C.3     1  UNL1        0.0422
     16 C           6.3743   -2.3103    0.0000 C.3     1  UNL1        0.1861
     17 C           3.7243    0.2520    0.0000 C.3     1  UNL1        0.0431
     18 C           6.3904    0.7312    0.0000 C.3     1  UNL1       -0.0478
     19 C           7.2564    0.2312    0.0000 C.3     1  UNL1       -0.0408
     20 C           4.4203    1.7798    0.0000 C.3     1  UNL1        0.0789
     21 C           4.6304   -1.3034    0.0000 C.2     1  UNL1        0.1829
     22 C           3.7243   -0.7896    0.0000 C.3     1  UNL1        0.1672
     23 C           2.9620    0.9528    0.0000 C.3     1  UNL1        0.0716
     24 C           8.1664   -1.2756    0.0000 C.3     1  UNL1        0.1391
     25 C           6.1744   -1.8945    0.0000 C.3     1  UNL1       -0.0496
     26 C           5.6898    0.9684    0.0000 C.3     1  UNL1        0.1012
     27 C           8.1224   -0.2688    0.0000 C.3     1  UNL1       -0.0531
     28 C           7.2723   -2.8380    0.0000 C.2     1  UNL1        0.3398
     29 C           4.7430    2.8090    0.0000 C.3     1  UNL1        0.0718
     30 C           2.0523    1.3681    0.0000 C.3     1  UNL1       -0.0357
     31 C           2.2859    0.2160    0.0000 C.3     1  UNL1       -0.0357
     32 C           9.0266   -0.7656    0.0000 C.ar    1  UNL1        0.0310
     33 C           5.6378    2.9557    0.0000 C.2     1  UNL1        0.3096
     34 C           9.1196    0.2300    0.0000 C.ar    1  UNL1       -0.0172
     35 C           9.9448   -1.1618    0.0000 C.ar    1  UNL1        0.0984
     36 C           2.8641   -2.2929    0.0000 C.2     1  UNL1        0.3046
     37 C          10.0953    0.4492    0.0000 C.ar    1  UNL1        0.0921
     38 C           2.0000   -2.7962    0.0000 C.3     1  UNL1        0.0333
     39 H           6.2605   -0.1938    0.0000 H       1  UNL1        0.0318
     40 H           5.9409   -3.0415    0.0000 H       1  UNL1        0.0743
     41 H           2.9460   -0.0897    0.0000 H       1  UNL1        0.0376
     42 H           6.7889    1.2062    0.0000 H       1  UNL1        0.0269
     43 H           5.9918    1.2062    0.0000 H       1  UNL1        0.0269
     44 H           7.8670    0.1236    0.0000 H       1  UNL1        0.0273
     45 H           7.4684    0.8138    0.0000 H       1  UNL1        0.0273
     46 H           3.9561    2.4919    0.0000 H       1  UNL1        0.0608
     47 H           3.7279   -1.4096    0.0000 H       1  UNL1        0.0819
     48 H           8.7063   -1.5804    0.0000 H       1  UNL1        0.0793
     49 H           5.6376   -2.2046    0.0000 H       1  UNL1        0.0240
     50 H           6.4845   -2.4314    0.0000 H       1  UNL1        0.0240
     51 H           6.7114   -1.5845    0.0000 H       1  UNL1        0.0240
     52 H           5.6789    0.3485    0.0000 H       1  UNL1        0.0704
     53 H           6.2943    0.8307    0.0000 H       1  UNL1        0.0704
     54 H           8.4324   -0.8057    0.0000 H       1  UNL1        0.0237
     55 H           8.6594    0.0412    0.0000 H       1  UNL1        0.0237
     56 H           7.8124    0.2682    0.0000 H       1  UNL1        0.0237
     57 H           4.7386    3.4290    0.0000 H       1  UNL1        0.0403
     58 H           4.1298    2.9006    0.0000 H       1  UNL1        0.0403
     59 H           2.3099    1.9321    0.0000 H       1  UNL1        0.0257
     60 H           1.4884    1.6256    0.0000 H       1  UNL1        0.0257
     61 H           1.7948    0.8041    0.0000 H       1  UNL1        0.0257
     62 H           1.8291    0.6352    0.0000 H       1  UNL1        0.0257
     63 H           1.8667   -0.2408    0.0000 H       1  UNL1        0.0257
     64 H           2.7427   -0.2032    0.0000 H       1  UNL1        0.0257
     65 H           8.6541    0.6395    0.0000 H       1  UNL1        0.0653
     66 H          10.0807   -1.7667    0.0000 H       1  UNL1        0.1033
     67 H          10.3409    1.0185    0.0000 H       1  UNL1        0.1029
     68 H           1.6879   -2.2605    0.0000 H       1  UNL1        0.0342
     69 H           1.4643   -3.1083    0.0000 H       1  UNL1        0.0342
     70 H           2.3121   -3.3320    0.0000 H       1  UNL1        0.0342
@<TRIPOS>BOND
     1    11     1    1
     2     1    16    1
     3     2    20    1
     4     2    23    1
     5     3    24    1
     6     3    28    1
     7     4    26    1
     8     4    33    1
     9    22     5    1
    10     5    36    1
    11     6    21    2
    12     7    28    2
    13     8    33    2
    14     9    35   ar
    15     9    37   ar
    16    10    36    2
    17    11    12    1
    18    11    15    1
    19    11    16    1
    20    12    13    1
    21    12    21    1
    22    12    25    1
    23    13    14    1
    24    13    18    1
    25    13    39    1
    26    14    17    1
    27    14    20    1
    28    14    26    1
    29    15    19    1
    30    15    24    1
    31    15    27    1
    32    16    28    1
    33    16    40    1
    34    17    22    1
    35    17    23    1
    36    17    41    1
    37    18    19    1
    38    18    42    1
    39    18    43    1
    40    19    44    1
    41    19    45    1
    42    20    29    1
    43    20    46    1
    44    21    22    1
    45    22    47    1
    46    23    30    1
    47    23    31    1
    48    24    32    1
    49    24    48    1
    50    25    49    1
    51    25    50    1
    52    25    51    1
    53    26    52    1
    54    26    53    1
    55    27    54    1
    56    27    55    1
    57    27    56    1
    58    29    33    1
    59    29    57    1
    60    29    58    1
    61    30    59    1
    62    30    60    1
    63    30    61    1
    64    31    62    1
    65    31    63    1
    66    31    64    1
    67    32    34   ar
    68    32    35   ar
    69    34    37   ar
    70    34    65    1
    71    35    66    1
    72    36    38    1
    73    37    67    1
    74    38    68    1
    75    38    69    1
    76    38    70    1
