@<TRIPOS>MOLECULE
IMPHY011256
 80 85 0 0 0
SMALL
GASTEIGER

@<TRIPOS>ATOM
      1 O           5.5057    3.2051    0.0000 O.3     1  UNL1       -0.3477
      2 O           4.6396    4.7051    0.0000 O.3     1  UNL1       -0.3640
      3 O           2.8776   -4.7009    0.0000 O.3     1  UNL1       -0.4802
      4 O           2.0000   -3.2076    0.0000 O.2     1  UNL1       -0.2504
      5 C           3.7577    0.1358    0.0000 C.3     1  UNL1       -0.0230
      6 C           4.6557    0.6636    0.0000 C.3     1  UNL1       -0.0271
      7 C           4.6396    1.7051    0.0000 C.3     1  UNL1        0.0012
      8 C           3.7493   -0.9492    0.0000 C.3     1  UNL1       -0.0232
      9 C           4.6889   -1.4917    0.0000 C.3     1  UNL1       -0.0307
     10 C           3.7736    2.2051    0.0000 C.3     1  UNL1       -0.0230
     11 C           4.7064   -2.6217    0.0000 C.3     1  UNL1       -0.0154
     12 C           2.8556    0.6566    0.0000 C.3     1  UNL1       -0.0466
     13 C           5.6076    0.1429    0.0000 C.3     1  UNL1       -0.0488
     14 C           3.7736    3.2051    0.0000 C.3     1  UNL1        0.0223
     15 C           2.8636    1.6982    0.0000 C.3     1  UNL1       -0.0484
     16 C           5.6244   -0.9419    0.0000 C.3     1  UNL1       -0.0491
     17 C           3.7320   -3.1943    0.0000 C.3     1  UNL1        0.0712
     18 C           2.7620   -1.4991    0.0000 C.3     1  UNL1       -0.0458
     19 C           4.2396    2.3051    0.0000 C.3     1  UNL1       -0.0399
     20 C           4.6396    3.7051    0.0000 C.3     1  UNL1        0.1726
     21 C           5.5057    2.2051    0.0000 C.3     1  UNL1        0.0571
     22 C           2.7532   -2.6292    0.0000 C.3     1  UNL1       -0.0364
     23 C           2.7742   -0.0454    0.0000 C.3     1  UNL1       -0.0588
     24 C           4.2396    3.1051    0.0000 C.3     1  UNL1        0.0023
     25 C           5.5451   -3.3692    0.0000 C.3     1  UNL1       -0.0163
     26 C           2.7645   -0.7755    0.0000 C.3     1  UNL1       -0.0588
     27 C           3.9769   -4.2908    0.0000 C.3     1  UNL1       -0.0364
     28 C           5.0952   -4.3986    0.0000 C.3     1  UNL1       -0.0452
     29 C           3.2736    4.0711    0.0000 C.3     1  UNL1       -0.0546
     30 C           2.7736    3.2051    0.0000 C.3     1  UNL1       -0.0546
     31 C           2.8698   -3.7010    0.0000 C.2     1  UNL1        0.3112
     32 C           6.5220   -3.1554    0.0000 C.2     1  UNL1       -0.0763
     33 C           7.1956   -3.8945    0.0000 C.3     1  UNL1       -0.0438
     34 C           6.8253   -2.2025    0.0000 C.2     1  UNL1       -0.0994
     35 H           5.3835    1.1027    0.0000 H       1  UNL1        0.0312
     36 H           5.4299   -1.9081    0.0000 H       1  UNL1        0.0309
     37 H           3.0375    2.6301    0.0000 H       1  UNL1        0.0314
     38 H           5.4793   -2.2680    0.0000 H       1  UNL1        0.0320
     39 H           2.2456    0.7674    0.0000 H       1  UNL1        0.0271
     40 H           2.6420    0.0746    0.0000 H       1  UNL1        0.0271
     41 H           6.2200    0.0463    0.0000 H       1  UNL1        0.0268
     42 H           5.8077    0.7298    0.0000 H       1  UNL1        0.0268
     43 H           2.6591    2.2835    0.0000 H       1  UNL1        0.0268
     44 H           2.2520    1.5968    0.0000 H       1  UNL1        0.0268
     45 H           5.8424   -1.5223    0.0000 H       1  UNL1        0.0268
     46 H           6.2335   -0.8264    0.0000 H       1  UNL1        0.0268
     47 H           2.5574   -0.9138    0.0000 H       1  UNL1        0.0271
     48 H           2.1503   -1.6005    0.0000 H       1  UNL1        0.0271
     49 H           3.6526    2.5046    0.0000 H       1  UNL1        0.0273
     50 H           4.8330    2.4847    0.0000 H       1  UNL1        0.0273
     51 H           5.7177    1.6224    0.0000 H       1  UNL1        0.0566
     52 H           6.1163    2.3127    0.0000 H       1  UNL1        0.0566
     53 H           2.1432   -2.5184    0.0000 H       1  UNL1        0.0276
     54 H           2.5397   -3.2113    0.0000 H       1  UNL1        0.0276
     55 H           2.6619    0.5643    0.0000 H       1  UNL1        0.0235
     56 H           2.1645   -0.1577    0.0000 H       1  UNL1        0.0235
     57 H           2.8866   -0.6551    0.0000 H       1  UNL1        0.0235
     58 H           3.8619    3.5967    0.0000 H       1  UNL1        0.0317
     59 H           4.8330    2.9254    0.0000 H       1  UNL1        0.0317
     60 H           5.7022   -2.7694    0.0000 H       1  UNL1        0.0348
     61 H           2.8722   -0.1649    0.0000 H       1  UNL1        0.0235
     62 H           2.1539   -0.6679    0.0000 H       1  UNL1        0.0235
     63 H           2.6568   -1.3861    0.0000 H       1  UNL1        0.0235
     64 H           3.3610   -4.3616    0.0000 H       1  UNL1        0.0276
     65 H           3.9826   -4.9107    0.0000 H       1  UNL1        0.0276
     66 H           4.9711   -5.0061    0.0000 H       1  UNL1        0.0271
     67 H           5.6862   -4.5858    0.0000 H       1  UNL1        0.0271
     68 H           3.8106    4.3811    0.0000 H       1  UNL1        0.0237
     69 H           2.9636    4.6080    0.0000 H       1  UNL1        0.0237
     70 H           2.7367    3.7611    0.0000 H       1  UNL1        0.0237
     71 H           2.7736    3.8251    0.0000 H       1  UNL1        0.0237
     72 H           2.1536    3.2051    0.0000 H       1  UNL1        0.0237
     73 H           2.7736    2.5851    0.0000 H       1  UNL1        0.0237
     74 H           5.1766    5.0151    0.0000 H       1  UNL1        0.2128
     75 H           6.7373   -4.3121    0.0000 H       1  UNL1        0.0274
     76 H           7.6132   -4.3528    0.0000 H       1  UNL1        0.0274
     77 H           7.6538   -3.4769    0.0000 H       1  UNL1        0.0274
     78 H           2.3430   -5.0151    0.0000 H       1  UNL1        0.2951
     79 H           7.4310   -2.0700    0.0000 H       1  UNL1        0.0534
     80 H           6.4077   -1.7443    0.0000 H       1  UNL1        0.0534
@<TRIPOS>BOND
     1     1    20    1
     2     1    21    1
     3    20     2    1
     4     2    74    1
     5     3    31    1
     6     3    78    1
     7     4    31    2
     8     5     6    1
     9     5     8    1
    10     5    12    1
    11     5    23    1
    12     6     7    1
    13     6    13    1
    14     6    35    1
    15     7    10    1
    16     7    19    1
    17     7    21    1
    18     8     9    1
    19     8    18    1
    20     8    26    1
    21     9    11    1
    22     9    16    1
    23     9    36    1
    24    10    14    1
    25    10    15    1
    26    10    37    1
    27    11    17    1
    28    11    25    1
    29    11    38    1
    30    12    15    1
    31    12    39    1
    32    12    40    1
    33    13    16    1
    34    13    41    1
    35    13    42    1
    36    14    20    1
    37    14    29    1
    38    14    30    1
    39    15    43    1
    40    15    44    1
    41    16    45    1
    42    16    46    1
    43    17    22    1
    44    17    27    1
    45    17    31    1
    46    18    22    1
    47    18    47    1
    48    18    48    1
    49    19    24    1
    50    19    49    1
    51    19    50    1
    52    20    24    1
    53    21    51    1
    54    21    52    1
    55    22    53    1
    56    22    54    1
    57    23    55    1
    58    23    56    1
    59    23    57    1
    60    24    58    1
    61    24    59    1
    62    25    28    1
    63    25    32    1
    64    25    60    1
    65    26    61    1
    66    26    62    1
    67    26    63    1
    68    27    28    1
    69    27    64    1
    70    27    65    1
    71    28    66    1
    72    28    67    1
    73    29    68    1
    74    29    69    1
    75    29    70    1
    76    30    71    1
    77    30    72    1
    78    30    73    1
    79    32    33    1
    80    32    34    2
    81    33    75    1
    82    33    76    1
    83    33    77    1
    84    34    79    1
    85    34    80    1
