@<TRIPOS>MOLECULE
IMPHY014620
 87 92 0 0 0
SMALL
GASTEIGER

@<TRIPOS>ATOM
      1 O           7.4149   -3.6379    0.0000 O.3     1  UNL1       -0.4606
      2 O           9.6033    1.9562    0.0000 O.3     1  UNL1       -0.3452
      3 O           7.6034    3.8888    0.0000 O.3     1  UNL1       -0.3627
      4 O          10.4096    0.3670    0.0000 O.3     1  UNL1       -0.3542
      5 O           2.0000   -3.6588    0.0000 O.2     1  UNL1       -0.2921
      6 O           6.5662   -5.1478    0.0000 O.2     1  UNL1       -0.2512
      7 C           6.5271   -2.1064    0.0000 C.3     1  UNL1        0.0300
      8 C           5.6610   -1.6064    0.0000 C.3     1  UNL1       -0.0194
      9 C           7.3931   -0.6064    0.0000 C.3     1  UNL1       -0.0069
     10 C           4.7510   -2.1133    0.0000 C.3     1  UNL1       -0.0061
     11 C           7.3931   -1.6064    0.0000 C.2     1  UNL1       -0.0576
     12 C           4.7430   -3.1549    0.0000 C.3     1  UNL1       -0.0164
     13 C           8.3393   -0.3017    0.0000 C.3     1  UNL1       -0.0210
     14 C           6.5431   -3.1479    0.0000 C.3     1  UNL1        0.1126
     15 C           5.6610   -0.6064    0.0000 C.3     1  UNL1       -0.0477
     16 C           6.5271   -0.1064    0.0000 C.3     1  UNL1       -0.0433
     17 C           5.6451   -3.6757    0.0000 C.3     1  UNL1       -0.0103
     18 C           8.6500    0.6488    0.0000 C.3     1  UNL1        0.0165
     19 C           8.9229   -1.1064    0.0000 C.3     1  UNL1       -0.0304
     20 C           3.8076   -3.7046    0.0000 C.3     1  UNL1        0.0311
     21 C           8.3393   -1.9112    0.0000 C.2     1  UNL1       -0.0833
     22 C           7.3931   -2.6064    0.0000 C.3     1  UNL1       -0.0521
     23 C           7.3931    0.3936    0.0000 C.3     1  UNL1       -0.0555
     24 C           4.7587   -1.1133    0.0000 C.3     1  UNL1       -0.0555
     25 C           3.8242   -1.5492    0.0000 C.2     1  UNL1       -0.0742
     26 C           8.0636    1.4588    0.0000 C.3     1  UNL1       -0.0162
     27 C           9.6016    0.9562    0.0000 C.3     1  UNL1        0.1624
     28 C           8.6528    2.2668    0.0000 C.3     1  UNL1        0.0909
     29 C           2.8680   -3.1621    0.0000 C.2     1  UNL1        0.1617
     30 C           8.3454    3.2184    0.0000 C.3     1  UNL1        0.1139
     31 C           2.8763   -2.0772    0.0000 C.2     1  UNL1       -0.0221
     32 C           3.3109   -4.5726    0.0000 C.3     1  UNL1       -0.0525
     33 C           4.3109   -4.5687    0.0000 C.3     1  UNL1       -0.0525
     34 C           8.5550    4.1962    0.0000 C.3     1  UNL1        0.0930
     35 C           7.4264   -4.6378    0.0000 C.2     1  UNL1        0.3042
     36 C           8.2476    5.1478    0.0000 C.3     1  UNL1       -0.0335
     37 C           9.5328    3.9866    0.0000 C.3     1  UNL1       -0.0335
     38 C          11.3238    0.7722    0.0000 C.3     1  UNL1        0.0394
     39 C           8.2982   -5.1278    0.0000 C.3     1  UNL1        0.0332
     40 H           6.3972   -1.1814    0.0000 H       1  UNL1        0.0319
     41 H           4.7463   -4.0049    0.0000 H       1  UNL1        0.0320
     42 H           9.1790   -0.1698    0.0000 H       1  UNL1        0.0316
     43 H           6.5491   -3.7679    0.0000 H       1  UNL1        0.0743
     44 H           5.4490   -0.0238    0.0000 H       1  UNL1        0.0269
     45 H           5.0504   -0.7141    0.0000 H       1  UNL1        0.0269
     46 H           6.9256    0.3685    0.0000 H       1  UNL1        0.0274
     47 H           6.1285    0.3685    0.0000 H       1  UNL1        0.0274
     48 H           5.2478   -4.1517    0.0000 H       1  UNL1        0.0304
     49 H           6.0460   -4.1486    0.0000 H       1  UNL1        0.0304
     50 H           7.8102    0.5173    0.0000 H       1  UNL1        0.0353
     51 H           9.3838   -1.5212    0.0000 H       1  UNL1        0.0310
     52 H           9.3838   -0.6917    0.0000 H       1  UNL1        0.0310
     53 H           8.5319   -2.5005    0.0000 H       1  UNL1        0.0572
     54 H           7.0831   -3.1434    0.0000 H       1  UNL1        0.0239
     55 H           7.9300   -2.9164    0.0000 H       1  UNL1        0.0239
     56 H           7.7031   -2.0695    0.0000 H       1  UNL1        0.0239
     57 H           8.0131    0.3936    0.0000 H       1  UNL1        0.0238
     58 H           7.3931    1.0136    0.0000 H       1  UNL1        0.0238
     59 H           6.7731    0.3936    0.0000 H       1  UNL1        0.0238
     60 H           5.3787   -1.1181    0.0000 H       1  UNL1        0.0238
     61 H           4.7635   -0.4933    0.0000 H       1  UNL1        0.0238
     62 H           4.1388   -1.1085    0.0000 H       1  UNL1        0.0238
     63 H           3.8361   -0.9293    0.0000 H       1  UNL1        0.0579
     64 H           7.6036    1.8745    0.0000 H       1  UNL1        0.0295
     65 H           7.6021    1.0448    0.0000 H       1  UNL1        0.0295
     66 H           9.5035    0.3440    0.0000 H       1  UNL1        0.0912
     67 H           9.2548    2.8668    0.0000 H       1  UNL1        0.0624
     68 H           7.6317    2.7567    0.0000 H       1  UNL1        0.0651
     69 H           2.3430   -1.7610    0.0000 H       1  UNL1        0.0649
     70 H           2.7728   -4.2646    0.0000 H       1  UNL1        0.0239
     71 H           3.0030   -5.1107    0.0000 H       1  UNL1        0.0239
     72 H           3.8490   -4.8805    0.0000 H       1  UNL1        0.0239
     73 H           3.7752   -4.8808    0.0000 H       1  UNL1        0.0239
     74 H           4.6230   -5.1044    0.0000 H       1  UNL1        0.0239
     75 H           4.8466   -4.2566    0.0000 H       1  UNL1        0.0239
     76 H           8.8376    5.3384    0.0000 H       1  UNL1        0.0258
     77 H           8.0571    5.7378    0.0000 H       1  UNL1        0.0258
     78 H           7.6576    4.9572    0.0000 H       1  UNL1        0.0258
     79 H           9.4028    3.3804    0.0000 H       1  UNL1        0.0258
     80 H          10.1390    3.8567    0.0000 H       1  UNL1        0.0258
     81 H           9.6627    4.5928    0.0000 H       1  UNL1        0.0258
     82 H          11.5750    0.2053    0.0000 H       1  UNL1        0.0525
     83 H          11.8906    1.0234    0.0000 H       1  UNL1        0.0525
     84 H          11.0726    1.3390    0.0000 H       1  UNL1        0.0525
     85 H           7.9944   -5.6683    0.0000 H       1  UNL1        0.0342
     86 H           8.8387   -5.4316    0.0000 H       1  UNL1        0.0342
     87 H           8.6020   -4.5873    0.0000 H       1  UNL1        0.0342
@<TRIPOS>BOND
     1    14     1    1
     2     1    35    1
     3     2    27    1
     4     2    28    1
     5     3    30    1
     6     3    34    1
     7    27     4    1
     8     4    38    1
     9     5    29    2
    10     6    35    2
    11     7     8    1
    12     7    11    1
    13     7    14    1
    14     7    22    1
    15     8    10    1
    16     8    15    1
    17     8    40    1
    18     9    11    1
    19     9    13    1
    20     9    16    1
    21     9    23    1
    22    10    12    1
    23    10    24    1
    24    10    25    1
    25    11    21    2
    26    12    17    1
    27    12    20    1
    28    12    41    1
    29    13    18    1
    30    13    19    1
    31    13    42    1
    32    14    17    1
    33    14    43    1
    34    15    16    1
    35    15    44    1
    36    15    45    1
    37    16    46    1
    38    16    47    1
    39    17    48    1
    40    17    49    1
    41    18    26    1
    42    18    27    1
    43    18    50    1
    44    19    21    1
    45    19    51    1
    46    19    52    1
    47    20    29    1
    48    20    32    1
    49    20    33    1
    50    21    53    1
    51    22    54    1
    52    22    55    1
    53    22    56    1
    54    23    57    1
    55    23    58    1
    56    23    59    1
    57    24    60    1
    58    24    61    1
    59    24    62    1
    60    25    31    2
    61    25    63    1
    62    26    28    1
    63    26    64    1
    64    26    65    1
    65    27    66    1
    66    28    30    1
    67    28    67    1
    68    29    31    1
    69    30    34    1
    70    30    68    1
    71    31    69    1
    72    32    70    1
    73    32    71    1
    74    32    72    1
    75    33    73    1
    76    33    74    1
    77    33    75    1
    78    34    36    1
    79    34    37    1
    80    35    39    1
    81    36    76    1
    82    36    77    1
    83    36    78    1
    84    37    79    1
    85    37    80    1
    86    37    81    1
    87    38    82    1
    88    38    83    1
    89    38    84    1
    90    39    85    1
    91    39    86    1
    92    39    87    1
