@<TRIPOS>MOLECULE
IMPHY004161
 30 29 0 0 0
SMALL
GASTEIGER

@<TRIPOS>ATOM
      1 O          10.3312   -0.0600    0.0000 O.3     1  UNL1       -0.3907
      2 O           2.5369    0.4400    0.0000 O.3     1  UNL1       -0.3910
      3 C           6.0010    0.4400    0.0000 C.3     1  UNL1       -0.0285
      4 C           6.8671   -0.0600    0.0000 C.3     1  UNL1       -0.0308
      5 C           5.1350   -0.0600    0.0000 C.2     1  UNL1       -0.0741
      6 C           7.7331    0.4400    0.0000 C.2     1  UNL1       -0.0826
      7 C           8.5991   -0.0600    0.0000 C.2     1  UNL1       -0.0515
      8 C           5.1350   -1.0600    0.0000 C.3     1  UNL1       -0.0437
      9 C           4.2690    0.4400    0.0000 C.2     1  UNL1       -0.0600
     10 C           9.4651    0.4400    0.0000 C.3     1  UNL1        0.0650
     11 C           8.5991   -1.0600    0.0000 C.3     1  UNL1       -0.0416
     12 C           3.4030   -0.0600    0.0000 C.3     1  UNL1        0.0626
     13 H           6.3996    0.9149    0.0000 H       1  UNL1        0.0313
     14 H           5.6025    0.9149    0.0000 H       1  UNL1        0.0313
     15 H           6.4685   -0.5349    0.0000 H       1  UNL1        0.0310
     16 H           7.2656   -0.5349    0.0000 H       1  UNL1        0.0310
     17 H           7.7331    1.0600    0.0000 H       1  UNL1        0.0572
     18 H           4.5150   -1.0600    0.0000 H       1  UNL1        0.0274
     19 H           5.1350   -1.6800    0.0000 H       1  UNL1        0.0274
     20 H           5.7550   -1.0600    0.0000 H       1  UNL1        0.0274
     21 H           4.2690    1.0600    0.0000 H       1  UNL1        0.0594
     22 H           9.8637    0.9149    0.0000 H       1  UNL1        0.0604
     23 H           9.0666    0.9149    0.0000 H       1  UNL1        0.0604
     24 H           7.9791   -1.0600    0.0000 H       1  UNL1        0.0275
     25 H           8.5991   -1.6800    0.0000 H       1  UNL1        0.0275
     26 H           9.2191   -1.0600    0.0000 H       1  UNL1        0.0275
     27 H           3.0044   -0.5349    0.0000 H       1  UNL1        0.0601
     28 H           3.8015   -0.5349    0.0000 H       1  UNL1        0.0601
     29 H          10.8681    0.2500    0.0000 H       1  UNL1        0.2098
     30 H           2.0000    0.1300    0.0000 H       1  UNL1        0.2098
@<TRIPOS>BOND
     1     1    10    1
     2     1    29    1
     3     2    12    1
     4     2    30    1
     5     3     4    1
     6     3     5    1
     7     3    13    1
     8     3    14    1
     9     4     6    1
    10     4    15    1
    11     4    16    1
    12     5     8    1
    13     5     9    2
    14     6     7    2
    15     6    17    1
    16     7    10    1
    17     7    11    1
    18     8    18    1
    19     8    19    1
    20     8    20    1
    21     9    12    1
    22     9    21    1
    23    10    22    1
    24    10    23    1
    25    11    24    1
    26    11    25    1
    27    11    26    1
    28    12    27    1
    29    12    28    1
