@<TRIPOS>MOLECULE
IMPHY015477
 39 38 0 0 0
SMALL
GASTEIGER

@<TRIPOS>ATOM
      1 O           8.9282    0.2500    0.0000 O.3     1  UNL1       -0.4567
      2 O          11.5263   -0.2500    0.0000 O.3     1  UNL1       -0.4525
      3 O           9.7942   -1.2500    0.0000 O.2     1  UNL1       -0.2376
      4 O          10.6603    1.2500    0.0000 O.2     1  UNL1       -0.2376
      5 C           5.4641    0.2500    0.0000 C.3     1  UNL1       -0.0530
      6 C           4.5981   -0.2500    0.0000 C.3     1  UNL1       -0.0531
      7 C           6.3301   -0.2500    0.0000 C.3     1  UNL1       -0.0500
      8 C           3.7320    0.2500    0.0000 C.3     1  UNL1       -0.0533
      9 C           7.1962    0.2500    0.0000 C.3     1  UNL1       -0.0185
     10 C           2.8660   -0.2500    0.0000 C.3     1  UNL1       -0.0559
     11 C           8.0622   -0.2500    0.0000 C.3     1  UNL1        0.0930
     12 C           2.0000    0.2500    0.0000 C.3     1  UNL1       -0.0653
     13 C           9.7942   -0.2500    0.0000 C.2     1  UNL1        0.4173
     14 C          10.6603    0.2500    0.0000 C.2     1  UNL1        0.4176
     15 C          12.3923    0.2500    0.0000 C.3     1  UNL1        0.1110
     16 C          13.2583   -0.2500    0.0000 C.2     1  UNL1       -0.0541
     17 C          14.1244    0.2500    0.0000 C.2     1  UNL1       -0.0995
     18 H           5.8626    0.7249    0.0000 H       1  UNL1        0.0265
     19 H           5.0656    0.7249    0.0000 H       1  UNL1        0.0265
     20 H           4.1996   -0.7249    0.0000 H       1  UNL1        0.0265
     21 H           4.9966   -0.7249    0.0000 H       1  UNL1        0.0265
     22 H           5.9316   -0.7249    0.0000 H       1  UNL1        0.0266
     23 H           6.7287   -0.7249    0.0000 H       1  UNL1        0.0266
     24 H           4.1306    0.7249    0.0000 H       1  UNL1        0.0265
     25 H           3.3335    0.7249    0.0000 H       1  UNL1        0.0265
     26 H           7.5947    0.7249    0.0000 H       1  UNL1        0.0298
     27 H           6.7976    0.7249    0.0000 H       1  UNL1        0.0298
     28 H           2.4675   -0.7249    0.0000 H       1  UNL1        0.0263
     29 H           3.2646   -0.7249    0.0000 H       1  UNL1        0.0263
     30 H           7.6636   -0.7249    0.0000 H       1  UNL1        0.0697
     31 H           8.4607   -0.7249    0.0000 H       1  UNL1        0.0697
     32 H           2.3100    0.7869    0.0000 H       1  UNL1        0.0230
     33 H           1.4631    0.5600    0.0000 H       1  UNL1        0.0230
     34 H           1.6900   -0.2869    0.0000 H       1  UNL1        0.0230
     35 H          12.7908    0.7249    0.0000 H       1  UNL1        0.0743
     36 H          11.9938    0.7249    0.0000 H       1  UNL1        0.0743
     37 H          13.2583   -0.8700    0.0000 H       1  UNL1        0.0600
     38 H          14.6613   -0.0600    0.0000 H       1  UNL1        0.0533
     39 H          14.1244    0.8700    0.0000 H       1  UNL1        0.0533
@<TRIPOS>BOND
     1     1    11    1
     2     1    13    1
     3     2    14    1
     4     2    15    1
     5     3    13    2
     6     4    14    2
     7     5     6    1
     8     5     7    1
     9     5    18    1
    10     5    19    1
    11     6     8    1
    12     6    20    1
    13     6    21    1
    14     7     9    1
    15     7    22    1
    16     7    23    1
    17     8    10    1
    18     8    24    1
    19     8    25    1
    20     9    11    1
    21     9    26    1
    22     9    27    1
    23    10    12    1
    24    10    28    1
    25    10    29    1
    26    11    30    1
    27    11    31    1
    28    12    32    1
    29    12    33    1
    30    12    34    1
    31    13    14    1
    32    15    16    1
    33    15    35    1
    34    15    36    1
    35    16    17    2
    36    16    37    1
    37    17    38    1
    38    17    39    1
