@<TRIPOS>MOLECULE
IMPHY013801
 66 66 0 0 0
SMALL
GASTEIGER

@<TRIPOS>ATOM
      1 O          11.5263   -1.0000    0.0000 O.3     1  UNL1       -0.4611
      2 O           8.0622   -3.0000    0.0000 O.3     1  UNL1       -0.4611
      3 O           9.7942   -1.0000    0.0000 O.2     1  UNL1       -0.2449
      4 O           8.9282   -1.5000    0.0000 O.2     1  UNL1       -0.2449
      5 C          13.2583    3.0000    0.0000 C.3     1  UNL1       -0.0507
      6 C           3.7320   -2.5000    0.0000 C.3     1  UNL1       -0.0507
      7 C          14.1244    3.5000    0.0000 C.3     1  UNL1       -0.0467
      8 C           2.8660   -3.0000    0.0000 C.3     1  UNL1       -0.0467
      9 C          13.2583    2.0000    0.0000 C.3     1  UNL1       -0.0527
     10 C           4.5981   -3.0000    0.0000 C.3     1  UNL1       -0.0527
     11 C          12.3923    1.5000    0.0000 C.3     1  UNL1       -0.0500
     12 C           5.4641   -2.5000    0.0000 C.3     1  UNL1       -0.0500
     13 C          12.3923    0.5000    0.0000 C.3     1  UNL1       -0.0185
     14 C           6.3301   -3.0000    0.0000 C.3     1  UNL1       -0.0185
     15 C          14.1244    4.5000    0.0000 C.3     1  UNL1       -0.0627
     16 C          14.9904    3.0000    0.0000 C.3     1  UNL1       -0.0627
     17 C           2.0000   -2.5000    0.0000 C.3     1  UNL1       -0.0627
     18 C           2.8660   -4.0000    0.0000 C.3     1  UNL1       -0.0627
     19 C          11.5263    0.0000    0.0000 C.3     1  UNL1        0.0928
     20 C           7.1962   -2.5000    0.0000 C.3     1  UNL1        0.0928
     21 C          10.6603   -2.5000    0.0000 C.ar    1  UNL1        0.0729
     22 C           9.7942   -3.0000    0.0000 C.ar    1  UNL1        0.0729
     23 C          10.6603   -1.5000    0.0000 C.2     1  UNL1        0.3400
     24 C           8.9282   -2.5000    0.0000 C.2     1  UNL1        0.3400
     25 C          11.5263   -3.0000    0.0000 C.ar    1  UNL1       -0.0470
     26 C           9.7942   -4.0000    0.0000 C.ar    1  UNL1       -0.0470
     27 C          11.5263   -4.0000    0.0000 C.ar    1  UNL1       -0.0609
     28 C          10.6603   -4.5000    0.0000 C.ar    1  UNL1       -0.0609
     29 H          13.0463    3.5826    0.0000 H       1  UNL1        0.0268
     30 H          12.6477    2.8923    0.0000 H       1  UNL1        0.0268
     31 H           4.1306   -2.0250    0.0000 H       1  UNL1        0.0268
     32 H           3.3335   -2.0250    0.0000 H       1  UNL1        0.0268
     33 H          13.5874    3.8100    0.0000 H       1  UNL1        0.0295
     34 H           2.8660   -2.3800    0.0000 H       1  UNL1        0.0295
     35 H          13.4704    1.4174    0.0000 H       1  UNL1        0.0265
     36 H          13.8689    2.1077    0.0000 H       1  UNL1        0.0265
     37 H           4.1996   -3.4750    0.0000 H       1  UNL1        0.0265
     38 H           4.9966   -3.4750    0.0000 H       1  UNL1        0.0265
     39 H          12.1803    2.0826    0.0000 H       1  UNL1        0.0266
     40 H          11.7817    1.3923    0.0000 H       1  UNL1        0.0266
     41 H           5.8626   -2.0250    0.0000 H       1  UNL1        0.0266
     42 H           5.0656   -2.0250    0.0000 H       1  UNL1        0.0266
     43 H          12.6044   -0.0826    0.0000 H       1  UNL1        0.0298
     44 H          13.0029    0.6077    0.0000 H       1  UNL1        0.0298
     45 H           5.9316   -3.4750    0.0000 H       1  UNL1        0.0298
     46 H           6.7287   -3.4750    0.0000 H       1  UNL1        0.0298
     47 H          14.7444    4.5000    0.0000 H       1  UNL1        0.0232
     48 H          14.1244    5.1200    0.0000 H       1  UNL1        0.0232
     49 H          13.5044    4.5000    0.0000 H       1  UNL1        0.0232
     50 H          14.6804    2.4631    0.0000 H       1  UNL1        0.0232
     51 H          15.5273    2.6900    0.0000 H       1  UNL1        0.0232
     52 H          15.3004    3.5369    0.0000 H       1  UNL1        0.0232
     53 H           2.3100   -1.9631    0.0000 H       1  UNL1        0.0232
     54 H           1.4631   -2.1900    0.0000 H       1  UNL1        0.0232
     55 H           1.6900   -3.0369    0.0000 H       1  UNL1        0.0232
     56 H           2.2460   -4.0000    0.0000 H       1  UNL1        0.0232
     57 H           2.8660   -4.6200    0.0000 H       1  UNL1        0.0232
     58 H           3.4860   -4.0000    0.0000 H       1  UNL1        0.0232
     59 H          11.3142    0.5826    0.0000 H       1  UNL1        0.0697
     60 H          10.9157   -0.1077    0.0000 H       1  UNL1        0.0697
     61 H           7.5947   -2.0250    0.0000 H       1  UNL1        0.0697
     62 H           6.7976   -2.0250    0.0000 H       1  UNL1        0.0697
     63 H          12.0632   -2.6900    0.0000 H       1  UNL1        0.0626
     64 H           9.2573   -4.3100    0.0000 H       1  UNL1        0.0626
     65 H          12.0632   -4.3100    0.0000 H       1  UNL1        0.0618
     66 H          10.6603   -5.1200    0.0000 H       1  UNL1        0.0618
@<TRIPOS>BOND
     1     1    19    1
     2     1    23    1
     3     2    20    1
     4     2    24    1
     5     3    23    2
     6     4    24    2
     7     5     7    1
     8     5     9    1
     9     5    29    1
    10     5    30    1
    11     6     8    1
    12     6    10    1
    13     6    31    1
    14     6    32    1
    15     7    15    1
    16     7    16    1
    17     7    33    1
    18     8    17    1
    19     8    18    1
    20     8    34    1
    21     9    11    1
    22     9    35    1
    23     9    36    1
    24    10    12    1
    25    10    37    1
    26    10    38    1
    27    11    13    1
    28    11    39    1
    29    11    40    1
    30    12    14    1
    31    12    41    1
    32    12    42    1
    33    13    19    1
    34    13    43    1
    35    13    44    1
    36    14    20    1
    37    14    45    1
    38    14    46    1
    39    15    47    1
    40    15    48    1
    41    15    49    1
    42    16    50    1
    43    16    51    1
    44    16    52    1
    45    17    53    1
    46    17    54    1
    47    17    55    1
    48    18    56    1
    49    18    57    1
    50    18    58    1
    51    19    59    1
    52    19    60    1
    53    20    61    1
    54    20    62    1
    55    21    22   ar
    56    21    23    1
    57    21    25   ar
    58    22    24    1
    59    22    26   ar
    60    25    27   ar
    61    25    63    1
    62    26    28   ar
    63    26    64    1
    64    27    28   ar
    65    27    65    1
    66    28    66    1
