@<TRIPOS>MOLECULE
IMPHY003403
 25 26 0 0 0
SMALL
GASTEIGER

@<TRIPOS>ATOM
      1 O           4.6660    1.7500    0.0000 O.3     1  UNL1       -0.4943
      2 O           6.3981   -1.2500    0.0000 O.2     1  UNL1       -0.2676
      3 N           4.6660   -1.2500    0.0000 N.ar    1  UNL1       -0.3109
      4 C           3.8000   -0.7500    0.0000 C.ar    1  UNL1        0.0552
      5 C           3.8000    0.2500    0.0000 C.ar    1  UNL1        0.0404
      6 C           4.6660    0.7500    0.0000 C.ar    1  UNL1        0.1343
      7 C           5.5321   -0.7500    0.0000 C.ar    1  UNL1        0.2550
      8 C           2.9061   -1.2847    0.0000 C.ar    1  UNL1       -0.0374
      9 C           5.5321    0.2500    0.0000 C.ar    1  UNL1        0.0453
     10 C           2.9061    0.7847    0.0000 C.ar    1  UNL1       -0.0491
     11 C           4.6660   -2.2500    0.0000 C.3     1  UNL1        0.0153
     12 C           2.0000   -0.7708    0.0000 C.ar    1  UNL1       -0.0598
     13 C           2.0000    0.2708    0.0000 C.ar    1  UNL1       -0.0610
     14 C           5.5321    2.2500    0.0000 C.3     1  UNL1        0.0788
     15 H           2.9132   -1.9046    0.0000 H       1  UNL1        0.0638
     16 H           6.0690    0.5600    0.0000 H       1  UNL1        0.0709
     17 H           2.9132    1.4046    0.0000 H       1  UNL1        0.0625
     18 H           4.0460   -2.2500    0.0000 H       1  UNL1        0.0457
     19 H           4.6660   -2.8700    0.0000 H       1  UNL1        0.0457
     20 H           5.2860   -2.2500    0.0000 H       1  UNL1        0.0457
     21 H           1.4643   -1.0829    0.0000 H       1  UNL1        0.0618
     22 H           1.4643    0.5829    0.0000 H       1  UNL1        0.0618
     23 H           5.8421    1.7131    0.0000 H       1  UNL1        0.0660
     24 H           6.0690    2.5600    0.0000 H       1  UNL1        0.0660
     25 H           5.2221    2.7869    0.0000 H       1  UNL1        0.0660
@<TRIPOS>BOND
     1     1     6    1
     2     1    14    1
     3     2     7    2
     4     3     4   ar
     5     3     7   ar
     6     3    11    1
     7     4     5   ar
     8     4     8   ar
     9     5     6   ar
    10     5    10   ar
    11     6     9   ar
    12     7     9   ar
    13     8    12   ar
    14     8    15    1
    15     9    16    1
    16    10    13   ar
    17    10    17    1
    18    11    18    1
    19    11    19    1
    20    11    20    1
    21    12    13   ar
    22    12    21    1
    23    13    22    1
    24    14    23    1
    25    14    24    1
    26    14    25    1
