@<TRIPOS>MOLECULE
IMPHY008403
 42 44 0 0 0
SMALL
GASTEIGER

@<TRIPOS>ATOM
      1 O          10.6882   -1.3797    0.0000 O.3     1  UNL1       -0.4816
      2 O           7.1962    1.6550    0.0000 O.2     1  UNL1       -0.2873
      3 O           3.7320    1.6550    0.0000 O.3     1  UNL1       -0.5061
      4 O           2.0000   -1.3450    0.0000 O.3     1  UNL1       -0.5066
      5 C          11.5942   -0.8658    0.0000 C.3     1  UNL1        0.1235
      6 C          11.5942    0.1758    0.0000 C.2     1  UNL1       -0.0409
      7 C           9.7942   -0.8450    0.0000 C.ar    1  UNL1        0.1289
      8 C           9.7942    0.1550    0.0000 C.ar    1  UNL1        0.0172
      9 C          12.5942   -0.8697    0.0000 C.3     1  UNL1       -0.0215
     10 C          12.0909   -1.7338    0.0000 C.3     1  UNL1       -0.0215
     11 C          10.6882    0.6897    0.0000 C.2     1  UNL1       -0.0513
     12 C           8.9282    0.6550    0.0000 C.ar    1  UNL1       -0.0403
     13 C           8.9282   -1.3450    0.0000 C.ar    1  UNL1       -0.0186
     14 C           8.0622    0.1550    0.0000 C.ar    1  UNL1        0.0224
     15 C           8.0622   -0.8450    0.0000 C.ar    1  UNL1       -0.0474
     16 C           7.1962    0.6550    0.0000 C.2     1  UNL1        0.1861
     17 C           6.3301    0.1550    0.0000 C.2     1  UNL1       -0.0137
     18 C           4.5981    0.1550    0.0000 C.ar    1  UNL1        0.0168
     19 C           5.4641    0.6550    0.0000 C.2     1  UNL1       -0.0475
     20 C           3.7320    0.6550    0.0000 C.ar    1  UNL1        0.1274
     21 C           4.5981   -0.8450    0.0000 C.ar    1  UNL1       -0.0477
     22 C           2.8660    0.1550    0.0000 C.ar    1  UNL1        0.0219
     23 C           3.7320   -1.3450    0.0000 C.ar    1  UNL1       -0.0194
     24 C           2.8660   -0.8450    0.0000 C.ar    1  UNL1        0.1204
     25 H          12.1300    0.4879    0.0000 H       1  UNL1        0.0611
     26 H          11.5528   -2.0417    0.0000 H       1  UNL1        0.0271
     27 H          12.3988   -2.2719    0.0000 H       1  UNL1        0.0271
     28 H          12.6290   -1.4258    0.0000 H       1  UNL1        0.0271
     29 H          12.5918   -1.4897    0.0000 H       1  UNL1        0.0271
     30 H          13.2142   -0.8721    0.0000 H       1  UNL1        0.0271
     31 H          12.5966   -0.2497    0.0000 H       1  UNL1        0.0271
     32 H          10.6810    1.3096    0.0000 H       1  UNL1        0.0623
     33 H           8.9282    1.2750    0.0000 H       1  UNL1        0.0632
     34 H           8.9282   -1.9650    0.0000 H       1  UNL1        0.0654
     35 H           7.5252   -1.1550    0.0000 H       1  UNL1        0.0626
     36 H           6.3301   -0.4650    0.0000 H       1  UNL1        0.0656
     37 H           5.4641    1.2750    0.0000 H       1  UNL1        0.0626
     38 H           5.1350   -1.1550    0.0000 H       1  UNL1        0.0626
     39 H           2.3291    0.4650    0.0000 H       1  UNL1        0.0691
     40 H           3.7320   -1.9650    0.0000 H       1  UNL1        0.0654
     41 H           3.1951    1.9650    0.0000 H       1  UNL1        0.2922
     42 H           2.0000   -1.9650    0.0000 H       1  UNL1        0.2921
@<TRIPOS>BOND
     1     1     5    1
     2     1     7    1
     3     2    16    2
     4     3    20    1
     5     3    41    1
     6     4    24    1
     7     4    42    1
     8     5     6    1
     9     5     9    1
    10     5    10    1
    11     6    11    2
    12     6    25    1
    13     7     8   ar
    14     7    13   ar
    15     8    11    1
    16     8    12   ar
    17     9    29    1
    18     9    30    1
    19     9    31    1
    20    10    26    1
    21    10    27    1
    22    10    28    1
    23    11    32    1
    24    12    14   ar
    25    12    33    1
    26    13    15   ar
    27    13    34    1
    28    14    15   ar
    29    14    16    1
    30    15    35    1
    31    16    17    1
    32    17    19    2
    33    17    36    1
    34    18    19    1
    35    18    20   ar
    36    18    21   ar
    37    19    37    1
    38    20    22   ar
    39    21    23   ar
    40    21    38    1
    41    22    24   ar
    42    22    39    1
    43    23    24   ar
    44    23    40    1
