@<TRIPOS>MOLECULE
IMPHY003266
 39 40 0 0 0
SMALL
GASTEIGER

@<TRIPOS>ATOM
      1 O           3.4030   -3.0950    0.0000 O.3     1  UNL1       -0.3865
      2 O           4.2690    0.4050    0.0000 O.3     1  UNL1       -0.4855
      3 O           2.5369   -0.5950    0.0000 O.3     1  UNL1       -0.3856
      4 O           7.7610    0.3703    0.0000 O.2     1  UNL1       -0.4220
      5 O           4.2690    2.4050    0.0000 O.3     1  UNL1       -0.4914
      6 O           9.5312    0.3808    0.0000 O.2     1  UNL1       -0.2452
      7 C           3.4030   -2.0950    0.0000 C.3     1  UNL1        0.0894
      8 C           3.4030   -1.0950    0.0000 C.3     1  UNL1        0.1171
      9 C           4.2690   -0.5950    0.0000 C.3     1  UNL1        0.1183
     10 C           2.4030   -2.0950    0.0000 C.3     1  UNL1       -0.0338
     11 C           4.4030   -2.0950    0.0000 C.3     1  UNL1       -0.0338
     12 C           5.1350    0.9050    0.0000 C.ar    1  UNL1        0.1655
     13 C           5.1350    1.9050    0.0000 C.ar    1  UNL1        0.1623
     14 C           6.0010    0.4050    0.0000 C.ar    1  UNL1        0.0267
     15 C           6.8671    1.9050    0.0000 C.ar    1  UNL1        0.0213
     16 C           6.8671    0.9050    0.0000 C.ar    1  UNL1        0.1428
     17 C           6.0010    2.4050    0.0000 C.ar    1  UNL1       -0.0056
     18 C           7.7610    2.4397    0.0000 C.ar    1  UNL1       -0.0442
     19 C           8.6671    1.9258    0.0000 C.ar    1  UNL1        0.0236
     20 C           8.6671    0.8842    0.0000 C.ar    1  UNL1        0.3372
     21 C           4.2690    3.4050    0.0000 C.3     1  UNL1        0.0790
     22 H           3.4030   -0.4750    0.0000 H       1  UNL1        0.0656
     23 H           4.4810   -1.1776    0.0000 H       1  UNL1        0.0724
     24 H           4.8796   -0.4873    0.0000 H       1  UNL1        0.0724
     25 H           4.4030   -2.7150    0.0000 H       1  UNL1        0.0258
     26 H           2.4030   -1.4750    0.0000 H       1  UNL1        0.0258
     27 H           1.7830   -2.0950    0.0000 H       1  UNL1        0.0258
     28 H           2.4030   -2.7150    0.0000 H       1  UNL1        0.0258
     29 H           5.0230   -2.0950    0.0000 H       1  UNL1        0.0258
     30 H           4.4030   -1.4750    0.0000 H       1  UNL1        0.0258
     31 H           2.8660   -3.4050    0.0000 H       1  UNL1        0.2102
     32 H           2.0000   -0.9050    0.0000 H       1  UNL1        0.2100
     33 H           6.0010   -0.2150    0.0000 H       1  UNL1        0.0692
     34 H           6.0010    3.0250    0.0000 H       1  UNL1        0.0662
     35 H           7.7538    3.0596    0.0000 H       1  UNL1        0.0627
     36 H           9.2028    2.2379    0.0000 H       1  UNL1        0.0689
     37 H           4.8890    3.4050    0.0000 H       1  UNL1        0.0660
     38 H           4.2690    4.0250    0.0000 H       1  UNL1        0.0660
     39 H           3.6490    3.4050    0.0000 H       1  UNL1        0.0660
@<TRIPOS>BOND
     1     1     7    1
     2     1    31    1
     3     2     9    1
     4     2    12    1
     5     3     8    1
     6     3    32    1
     7     4    16   ar
     8     4    20   ar
     9     5    13    1
    10     5    21    1
    11     6    20    2
    12     7     8    1
    13     7    10    1
    14     7    11    1
    15     8     9    1
    16     8    22    1
    17     9    23    1
    18     9    24    1
    19    10    26    1
    20    10    27    1
    21    10    28    1
    22    11    25    1
    23    11    29    1
    24    11    30    1
    25    12    13   ar
    26    12    14   ar
    27    13    17   ar
    28    14    16   ar
    29    14    33    1
    30    15    16   ar
    31    15    17   ar
    32    15    18   ar
    33    17    34    1
    34    18    19   ar
    35    18    35    1
    36    19    20   ar
    37    19    36    1
    38    21    37    1
    39    21    38    1
    40    21    39    1
