@<TRIPOS>MOLECULE
IMPHY009089
 41 43 0 0 0
SMALL
GASTEIGER

@<TRIPOS>ATOM
      1 O           5.9213    1.2380    0.0000 O.3     1  UNL1       -0.4576
      2 O           6.7863   -2.0330    0.0000 O.2     1  UNL1       -0.2904
      3 O           5.0564   -2.0330    0.0000 O.3     1  UNL1       -0.5059
      4 O           9.4260    0.3255    0.0000 O.2     1  UNL1       -0.5058
      5 O           2.4166    0.3255    0.0000 O.3     1  UNL1       -0.5056
      6 O           4.4766    2.5724    0.0000 O.2     1  UNL1       -0.2921
      7 O           8.4804   -2.5724    0.0000 O.2     1  UNL1       -0.2921
      8 C           6.4213   -0.3008    0.0000 C.3     1  UNL1        0.1202
      9 C           5.4213   -0.3008    0.0000 C.ar    1  UNL1        0.0581
     10 C           6.7304    0.6502    0.0000 C.2     1  UNL1        0.1270
     11 C           5.1123    0.6502    0.0000 C.ar    1  UNL1        0.1500
     12 C           7.1063   -1.0856    0.0000 C.2     1  UNL1        0.1877
     13 C           6.1123   -1.2519    0.0000 C.3     1  UNL1       -0.0411
     14 C           4.7364   -1.0856    0.0000 C.ar    1  UNL1        0.1313
     15 C           4.0969    0.8825    0.0000 C.ar    1  UNL1        0.1014
     16 C           7.7458    0.8825    0.0000 C.2     1  UNL1        0.0201
     17 C           8.1268   -0.8768    0.0000 C.2     1  UNL1        0.1022
     18 C           3.7158   -0.8768    0.0000 C.ar    1  UNL1        0.0335
     19 C           8.4487    0.1138    0.0000 C.2     1  UNL1        0.1339
     20 C           3.3940    0.1138    0.0000 C.ar    1  UNL1        0.1372
     21 C           3.7989    1.8371    0.0000 C.2     1  UNL1        0.1672
     22 C           8.7931   -1.6226    0.0000 C.2     1  UNL1        0.1670
     23 C           3.0496   -1.6226    0.0000 C.3     1  UNL1       -0.0327
     24 C           2.8232    2.0563    0.0000 C.3     1  UNL1       -0.0012
     25 C           9.7720   -1.4184    0.0000 C.3     1  UNL1       -0.0012
     26 H           5.5227   -1.0603    0.0000 H       1  UNL1        0.0247
     27 H           5.9207   -1.8415    0.0000 H       1  UNL1        0.0247
     28 H           6.7020   -1.4435    0.0000 H       1  UNL1        0.0247
     29 H           7.9305    1.4743    0.0000 H       1  UNL1        0.0688
     30 H           2.5872   -1.2095    0.0000 H       1  UNL1        0.0280
     31 H           2.6365   -2.0849    0.0000 H       1  UNL1        0.0280
     32 H           3.5119   -2.0356    0.0000 H       1  UNL1        0.0280
     33 H           4.6468   -2.4985    0.0000 H       1  UNL1        0.2922
     34 H           9.6154    0.9159    0.0000 H       1  UNL1        0.2922
     35 H           2.9591    2.6612    0.0000 H       1  UNL1        0.0309
     36 H           2.2183    2.1922    0.0000 H       1  UNL1        0.0309
     37 H           2.6873    1.4514    0.0000 H       1  UNL1        0.0309
     38 H           2.0000   -0.1337    0.0000 H       1  UNL1        0.2922
     39 H           9.8986   -2.0254    0.0000 H       1  UNL1        0.0309
     40 H          10.3790   -1.2918    0.0000 H       1  UNL1        0.0309
     41 H           9.6454   -0.8115    0.0000 H       1  UNL1        0.0309
@<TRIPOS>BOND
     1     1    10    1
     2     1    11    1
     3     2    12    2
     4     3    14    1
     5     3    33    1
     6     4    19    1
     7     4    34    1
     8     5    20    1
     9     5    38    1
    10     6    21    2
    11     7    22    2
    12     8     9    1
    13     8    10    1
    14     8    12    1
    15     8    13    1
    16     9    11   ar
    17     9    14   ar
    18    10    16    2
    19    11    15   ar
    20    12    17    1
    21    13    26    1
    22    13    27    1
    23    13    28    1
    24    14    18   ar
    25    15    20   ar
    26    15    21    1
    27    16    19    1
    28    16    29    1
    29    17    19    2
    30    17    22    1
    31    18    20   ar
    32    18    23    1
    33    21    24    1
    34    22    25    1
    35    23    30    1
    36    23    31    1
    37    23    32    1
    38    24    35    1
    39    24    36    1
    40    24    37    1
    41    25    39    1
    42    25    40    1
    43    25    41    1
