@<TRIPOS>MOLECULE
IMPHY012440
 89 93 0 0 0
SMALL
GASTEIGER

@<TRIPOS>ATOM
      1 O           5.9734   -3.9632    0.0000 O.3     1  UNL1       -0.3869
      2 O           4.3267   -0.7135    0.0000 O.3     1  UNL1       -0.4572
      3 O           3.0915   -1.6579    0.0000 O.3     1  UNL1       -0.3806
      4 O           8.4538   -2.5543    0.0000 O.3     1  UNL1       -0.3797
      5 O           9.2291   -3.5760    0.0000 O.2     1  UNL1       -0.2893
      6 O           7.0224    0.4957    0.0000 O.3     1  UNL1       -0.4600
      7 O           6.0196   -0.3477    0.0000 O.2     1  UNL1       -0.2505
      8 O           6.8930    2.2230    0.0000 O.2     1  UNL1       -0.2505
      9 O          11.3157    3.4228    0.0000 O.3     1  UNL1       -0.4950
     10 O           8.1947    4.9259    0.0000 O.3     1  UNL1       -0.5066
     11 C           5.7509   -2.9882    0.0000 C.3     1  UNL1        0.0877
     12 C           5.5284   -2.0133    0.0000 C.3     1  UNL1        0.0474
     13 C           6.6519   -3.4221    0.0000 C.3     1  UNL1        0.0439
     14 C           4.9984   -3.7084    0.0000 C.3     1  UNL1       -0.0106
     15 C           4.5379   -1.6910    0.0000 C.3     1  UNL1        0.1442
     16 C           3.7689   -2.3935    0.0000 C.3     1  UNL1        0.1242
     17 C           7.5529   -2.9882    0.0000 C.3     1  UNL1        0.1403
     18 C           4.0007   -3.4090    0.0000 C.3     1  UNL1       -0.0114
     19 C           7.7754   -2.0133    0.0000 C.3     1  UNL1        0.0084
     20 C           6.1519   -1.2315    0.0000 C.2     1  UNL1       -0.0721
     21 C           6.7879   -4.4068    0.0000 C.2     1  UNL1       -0.0687
     22 C           4.7147   -4.6673    0.0000 C.3     1  UNL1       -0.0597
     23 C           7.1519   -1.2315    0.0000 C.2     1  UNL1       -0.0329
     24 C           8.2380   -3.7085    0.0000 C.2     1  UNL1        0.1909
     25 C           7.7661   -4.5835    0.0000 C.2     1  UNL1       -0.0086
     26 C           2.7931   -2.6123    0.0000 C.2     1  UNL1       -0.0450
     27 C           7.5858   -0.3305    0.0000 C.3     1  UNL1        0.1137
     28 C           8.2000   -5.4845    0.0000 C.3     1  UNL1       -0.0366
     29 C           2.4947   -3.5667    0.0000 C.3     1  UNL1       -0.0412
     30 C           2.1158   -1.8766    0.0000 C.2     1  UNL1       -0.0969
     31 C           5.0675   -0.0419    0.0000 C.2     1  UNL1        0.3118
     32 C           4.8563    0.9356    0.0000 C.3     1  UNL1        0.0701
     33 C           7.4563    1.3967    0.0000 C.2     1  UNL1        0.3118
     34 C           3.9042    1.2414    0.0000 C.ar    1  UNL1       -0.0368
     35 C           8.4535    1.4714    0.0000 C.3     1  UNL1        0.0703
     36 C           3.6930    2.2188    0.0000 C.ar    1  UNL1       -0.0581
     37 C           3.1633    0.5697    0.0000 C.ar    1  UNL1       -0.0581
     38 C           8.8874    2.3724    0.0000 C.ar    1  UNL1       -0.0299
     39 C           2.7409    2.5246    0.0000 C.ar    1  UNL1       -0.0615
     40 C           2.2112    0.8755    0.0000 C.ar    1  UNL1       -0.0615
     41 C           2.0000    1.8529    0.0000 C.ar    1  UNL1       -0.0617
     42 C           9.8846    2.4471    0.0000 C.ar    1  UNL1       -0.0160
     43 C           8.3241    3.1987    0.0000 C.ar    1  UNL1       -0.0162
     44 C          10.3185    3.3481    0.0000 C.ar    1  UNL1        0.1238
     45 C           8.7580    4.0996    0.0000 C.ar    1  UNL1        0.1206
     46 C           9.7552    4.1743    0.0000 C.ar    1  UNL1        0.0215
     47 C          11.7496    4.3238    0.0000 C.3     1  UNL1        0.0788
     48 H           5.2841   -1.1992    0.0000 H       1  UNL1        0.0408
     49 H           7.4009   -3.8239    0.0000 H       1  UNL1        0.0404
     50 H           5.5277   -4.0312    0.0000 H       1  UNL1        0.0327
     51 H           3.9472   -1.5025    0.0000 H       1  UNL1        0.0773
     52 H           3.3815   -3.4416    0.0000 H       1  UNL1        0.0301
     53 H           3.9267   -4.0246    0.0000 H       1  UNL1        0.0301
     54 H           8.3340   -2.2823    0.0000 H       1  UNL1        0.0343
     55 H           8.1619   -1.5286    0.0000 H       1  UNL1        0.0343
     56 H           5.8829   -0.6729    0.0000 H       1  UNL1        0.0578
     57 H           6.3405   -4.8361    0.0000 H       1  UNL1        0.0580
     58 H           4.1202   -4.4914    0.0000 H       1  UNL1        0.0233
     59 H           4.5388   -5.2618    0.0000 H       1  UNL1        0.0233
     60 H           5.3092   -4.8432    0.0000 H       1  UNL1        0.0233
     61 H           5.7907   -4.5556    0.0000 H       1  UNL1        0.2102
     62 H           3.2766   -1.0661    0.0000 H       1  UNL1        0.2108
     63 H           8.5002   -1.9361    0.0000 H       1  UNL1        0.2108
     64 H           8.0892   -0.6924    0.0000 H       1  UNL1        0.0745
     65 H           8.0296    0.1024    0.0000 H       1  UNL1        0.0745
     66 H           7.6414   -5.7535    0.0000 H       1  UNL1        0.0279
     67 H           8.4690   -6.0431    0.0000 H       1  UNL1        0.0279
     68 H           8.7586   -5.2154    0.0000 H       1  UNL1        0.0279
     69 H           1.9029   -3.3817    0.0000 H       1  UNL1        0.0275
     70 H           2.3096   -4.1585    0.0000 H       1  UNL1        0.0275
     71 H           3.0864   -3.7518    0.0000 H       1  UNL1        0.0275
     72 H           2.3008   -1.2849    0.0000 H       1  UNL1        0.0535
     73 H           1.5108   -2.0123    0.0000 H       1  UNL1        0.0535
     74 H           5.4758    0.9593    0.0000 H       1  UNL1        0.0426
     75 H           4.9405    1.5498    0.0000 H       1  UNL1        0.0426
     76 H           8.3918    0.8545    0.0000 H       1  UNL1        0.0426
     77 H           9.0504    1.3035    0.0000 H       1  UNL1        0.0426
     78 H           4.1523    2.6352    0.0000 H       1  UNL1        0.0620
     79 H           3.2943   -0.0363    0.0000 H       1  UNL1        0.0620
     80 H           2.6099    3.1306    0.0000 H       1  UNL1        0.0618
     81 H           1.7519    0.4591    0.0000 H       1  UNL1        0.0618
     82 H           1.4097    2.0425    0.0000 H       1  UNL1        0.0618
     83 H          10.2339    1.9349    0.0000 H       1  UNL1        0.0657
     84 H           7.7058    3.1523    0.0000 H       1  UNL1        0.0657
     85 H          10.0242    4.7330    0.0000 H       1  UNL1        0.0691
     86 H           8.4637    5.4845    0.0000 H       1  UNL1        0.2921
     87 H          12.3082    4.0548    0.0000 H       1  UNL1        0.0660
     88 H          12.0186    4.8824    0.0000 H       1  UNL1        0.0660
     89 H          11.1910    4.5928    0.0000 H       1  UNL1        0.0660
@<TRIPOS>BOND
     1    11     1    1
     2     1    61    1
     3    15     2    1
     4     2    31    1
     5    16     3    1
     6     3    62    1
     7    17     4    1
     8     4    63    1
     9     5    24    2
    10     6    27    1
    11     6    33    1
    12     7    31    2
    13     8    33    2
    14     9    44    1
    15     9    47    1
    16    10    45    1
    17    10    86    1
    18    11    12    1
    19    11    13    1
    20    11    14    1
    21    12    15    1
    22    12    20    1
    23    12    48    1
    24    13    17    1
    25    13    21    1
    26    13    49    1
    27    14    18    1
    28    14    22    1
    29    14    50    1
    30    15    16    1
    31    15    51    1
    32    16    18    1
    33    16    26    1
    34    17    19    1
    35    17    24    1
    36    18    52    1
    37    18    53    1
    38    19    23    1
    39    19    54    1
    40    19    55    1
    41    20    23    2
    42    20    56    1
    43    21    25    2
    44    21    57    1
    45    22    58    1
    46    22    59    1
    47    22    60    1
    48    23    27    1
    49    24    25    1
    50    25    28    1
    51    26    29    1
    52    26    30    2
    53    27    64    1
    54    27    65    1
    55    28    66    1
    56    28    67    1
    57    28    68    1
    58    29    69    1
    59    29    70    1
    60    29    71    1
    61    30    72    1
    62    30    73    1
    63    31    32    1
    64    32    34    1
    65    32    74    1
    66    32    75    1
    67    33    35    1
    68    34    36   ar
    69    34    37   ar
    70    35    38    1
    71    35    76    1
    72    35    77    1
    73    36    39   ar
    74    36    78    1
    75    37    40   ar
    76    37    79    1
    77    38    42   ar
    78    38    43   ar
    79    39    41   ar
    80    39    80    1
    81    40    41   ar
    82    40    81    1
    83    41    82    1
    84    42    44   ar
    85    42    83    1
    86    43    45   ar
    87    43    84    1
    88    44    46   ar
    89    45    46   ar
    90    46    85    1
    91    47    87    1
    92    47    88    1
    93    47    89    1
