@<TRIPOS>MOLECULE
IMPHY002795
 62 65 0 0 0
SMALL
GASTEIGER

@<TRIPOS>ATOM
      1 O          13.0704    1.8789    0.0000 O.3     1  UNL1       -0.4853
      2 O          15.6571    1.0841    0.0000 O.3     1  UNL1       -0.3855
      3 O          11.2690   -0.9328    0.0000 O.3     1  UNL1       -0.5058
      4 O           4.2690   -0.9603    0.0000 O.3     1  UNL1       -0.3886
      5 O           2.5369    1.0397    0.0000 O.3     1  UNL1       -0.3866
      6 O           8.6270   -1.4949    0.0000 O.2     1  UNL1       -0.4618
      7 O           6.8671    1.5397    0.0000 O.3     1  UNL1       -0.5055
      8 O           5.1350   -1.4603    0.0000 O.3     1  UNL1       -0.5063
      9 O           8.6155    1.5743    0.0000 O.2     1  UNL1       -0.2863
     10 C          13.6571    1.0764    0.0000 C.3     1  UNL1        0.1323
     11 C          14.6571    1.0803    0.0000 C.3     1  UNL1        0.0974
     12 C          13.0766    0.2695    0.0000 C.3     1  UNL1        0.0192
     13 C          12.1292    0.5705    0.0000 C.ar    1  UNL1        0.0398
     14 C          12.1254    1.5705    0.0000 C.ar    1  UNL1        0.1278
     15 C          14.6533    2.0803    0.0000 C.3     1  UNL1       -0.0328
     16 C          14.6610    0.0803    0.0000 C.3     1  UNL1       -0.0328
     17 C          11.2651    0.0672    0.0000 C.ar    1  UNL1        0.1315
     18 C           4.2690    0.0397    0.0000 C.3     1  UNL1        0.0875
     19 C           3.4030    0.5397    0.0000 C.3     1  UNL1        0.0865
     20 C          10.3972    0.5639    0.0000 C.ar    1  UNL1        0.0307
     21 C          11.2574    2.0672    0.0000 C.ar    1  UNL1       -0.0188
     22 C           5.1350    0.5397    0.0000 C.3     1  UNL1        0.0081
     23 C          10.3933    1.5639    0.0000 C.ar    1  UNL1       -0.0469
     24 C           6.0010    0.0397    0.0000 C.ar    1  UNL1        0.0388
     25 C           9.5331    0.0605    0.0000 C.ar    1  UNL1        0.0679
     26 C           7.7331    0.0397    0.0000 C.ar    1  UNL1        0.1063
     27 C           6.8671    0.5397    0.0000 C.ar    1  UNL1        0.1379
     28 C           2.9030   -0.3263    0.0000 C.3     1  UNL1       -0.0339
     29 C           3.9030    1.4057    0.0000 C.3     1  UNL1       -0.0339
     30 C           8.6270    0.5744    0.0000 C.ar    1  UNL1        0.2038
     31 C           7.7331   -0.9603    0.0000 C.ar    1  UNL1        0.1454
     32 C           6.0010   -0.9603    0.0000 C.ar    1  UNL1        0.1271
     33 C           9.5331   -0.9811    0.0000 C.ar    1  UNL1        0.1040
     34 C           6.8671   -1.4603    0.0000 C.ar    1  UNL1        0.0233
     35 H          13.9367    1.6298    0.0000 H       1  UNL1        0.0765
     36 H          12.8278   -0.2984    0.0000 H       1  UNL1        0.0352
     37 H          13.6152   -0.0377    0.0000 H       1  UNL1        0.0352
     38 H          15.2732    2.0827    0.0000 H       1  UNL1        0.0258
     39 H          14.0410    0.0779    0.0000 H       1  UNL1        0.0258
     40 H          14.6634   -0.5397    0.0000 H       1  UNL1        0.0258
     41 H          15.2810    0.0827    0.0000 H       1  UNL1        0.0258
     42 H          14.6509    2.7003    0.0000 H       1  UNL1        0.0258
     43 H          14.0333    2.0779    0.0000 H       1  UNL1        0.0258
     44 H           4.8059   -0.2703    0.0000 H       1  UNL1        0.0625
     45 H          11.2550    2.6872    0.0000 H       1  UNL1        0.0654
     46 H           5.5335    1.0147    0.0000 H       1  UNL1        0.0341
     47 H           4.7365    1.0147    0.0000 H       1  UNL1        0.0341
     48 H          15.9650    1.6223    0.0000 H       1  UNL1        0.2103
     49 H           9.8552    1.8718    0.0000 H       1  UNL1        0.0626
     50 H           2.3660   -0.0163    0.0000 H       1  UNL1        0.0258
     51 H           2.5930   -0.8632    0.0000 H       1  UNL1        0.0258
     52 H           3.4399   -0.6363    0.0000 H       1  UNL1        0.0258
     53 H           4.4399    1.0957    0.0000 H       1  UNL1        0.0258
     54 H           4.2130    1.9427    0.0000 H       1  UNL1        0.0258
     55 H           3.3660    1.7157    0.0000 H       1  UNL1        0.0258
     56 H          10.0688   -1.2932    0.0000 H       1  UNL1        0.1037
     57 H           6.8671   -2.0803    0.0000 H       1  UNL1        0.0691
     58 H          11.8071   -1.2407    0.0000 H       1  UNL1        0.2922
     59 H           3.7320   -1.2703    0.0000 H       1  UNL1        0.2099
     60 H           2.0000    0.7297    0.0000 H       1  UNL1        0.2102
     61 H           6.3301    1.8497    0.0000 H       1  UNL1        0.2922
     62 H           5.1350   -2.0803    0.0000 H       1  UNL1        0.2921
@<TRIPOS>BOND
     1     1    10    1
     2     1    14    1
     3     2    11    1
     4     2    48    1
     5     3    17    1
     6     3    58    1
     7     4    18    1
     8     4    59    1
     9     5    19    1
    10     5    60    1
    11     6    31   ar
    12     6    33   ar
    13     7    27    1
    14     7    61    1
    15     8    32    1
    16     8    62    1
    17     9    30    2
    18    10    11    1
    19    10    12    1
    20    10    35    1
    21    11    15    1
    22    11    16    1
    23    12    13    1
    24    12    36    1
    25    12    37    1
    26    13    14   ar
    27    13    17   ar
    28    14    21   ar
    29    15    38    1
    30    15    42    1
    31    15    43    1
    32    16    39    1
    33    16    40    1
    34    16    41    1
    35    17    20   ar
    36    18    19    1
    37    18    22    1
    38    18    44    1
    39    19    28    1
    40    19    29    1
    41    20    23   ar
    42    20    25    1
    43    21    23   ar
    44    21    45    1
    45    22    24    1
    46    22    46    1
    47    22    47    1
    48    23    49    1
    49    24    27   ar
    50    24    32   ar
    51    25    30   ar
    52    25    33   ar
    53    26    27   ar
    54    26    30   ar
    55    26    31   ar
    56    28    50    1
    57    28    51    1
    58    28    52    1
    59    29    53    1
    60    29    54    1
    61    29    55    1
    62    31    34   ar
    63    32    34   ar
    64    33    56    1
    65    34    57    1
