@<TRIPOS>MOLECULE
IMPHY005868
 57 59 0 0 0
SMALL
GASTEIGER

@<TRIPOS>ATOM
      1 O           8.1301   -2.2052    0.0000 O.2     1  UNL1       -0.4542
      2 O           6.3817    0.8294    0.0000 O.3     1  UNL1       -0.5055
      3 O          11.6602   -0.1810    0.0000 O.3     1  UNL1       -0.4912
      4 O           3.7282   -1.6777    0.0000 O.3     1  UNL1       -0.3872
      5 O           4.6000   -2.2293    0.0000 O.3     1  UNL1       -0.5063
      6 O           8.1301    0.7948    0.0000 O.2     1  UNL1       -0.2863
      7 O          11.6602   -2.2293    0.0000 O.3     1  UNL1       -0.5032
      8 C           8.9961   -0.7052    0.0000 C.ar    1  UNL1        0.0719
      9 C           7.2641   -0.7052    0.0000 C.ar    1  UNL1        0.1063
     10 C           5.4641   -0.6844    0.0000 C.ar    1  UNL1        0.0391
     11 C           9.8901   -0.1705    0.0000 C.ar    1  UNL1        0.0160
     12 C           4.6000   -0.1810    0.0000 C.3     1  UNL1        0.0092
     13 C           7.2641   -1.7052    0.0000 C.ar    1  UNL1        0.1463
     14 C           6.3701   -0.1705    0.0000 C.ar    1  UNL1        0.1379
     15 C           8.1301   -0.2052    0.0000 C.ar    1  UNL1        0.2041
     16 C           8.9961   -1.7052    0.0000 C.ar    1  UNL1        0.1432
     17 C           3.7320   -0.6777    0.0000 C.3     1  UNL1        0.0799
     18 C           5.4641   -1.7260    0.0000 C.ar    1  UNL1        0.1271
     19 C           9.8785    0.8294    0.0000 C.3     1  UNL1       -0.0049
     20 C           6.3701   -2.2398    0.0000 C.ar    1  UNL1        0.0234
     21 C          10.7961   -0.6844    0.0000 C.ar    1  UNL1        0.1656
     22 C           9.8901   -2.2398    0.0000 C.ar    1  UNL1        0.0265
     23 C          10.7961   -1.7260    0.0000 C.ar    1  UNL1        0.1623
     24 C           2.8680   -0.1743    0.0000 C.2     1  UNL1       -0.0513
     25 C          10.7387    1.3394    0.0000 C.2     1  UNL1       -0.0808
     26 C          10.7271    2.3393    0.0000 C.2     1  UNL1       -0.0793
     27 C           2.0000   -0.6710    0.0000 C.3     1  UNL1       -0.0416
     28 C           2.8718    0.8256    0.0000 C.2     1  UNL1       -0.0973
     29 C          11.5873    2.8493    0.0000 C.3     1  UNL1       -0.0440
     30 C           9.8554    2.8293    0.0000 C.3     1  UNL1       -0.0440
     31 C          12.5282   -0.6777    0.0000 C.3     1  UNL1        0.0790
     32 H           5.0003    0.2924    0.0000 H       1  UNL1        0.0344
     33 H           4.2033    0.2955    0.0000 H       1  UNL1        0.0344
     34 H           4.2678   -0.9897    0.0000 H       1  UNL1        0.0643
     35 H           9.6597    1.4095    0.0000 H       1  UNL1        0.0357
     36 H           9.2692    0.7147    0.0000 H       1  UNL1        0.0357
     37 H           6.3773   -2.8598    0.0000 H       1  UNL1        0.0691
     38 H           9.8829   -2.8598    0.0000 H       1  UNL1        0.0692
     39 H          11.2792    1.0356    0.0000 H       1  UNL1        0.0575
     40 H           5.8484    1.1456    0.0000 H       1  UNL1        0.2922
     41 H           1.6921   -0.1329    0.0000 H       1  UNL1        0.0275
     42 H           1.4619   -0.9789    0.0000 H       1  UNL1        0.0275
     43 H           2.3079   -1.2091    0.0000 H       1  UNL1        0.0275
     44 H           3.1901   -1.9856    0.0000 H       1  UNL1        0.2102
     45 H           4.6024   -2.8493    0.0000 H       1  UNL1        0.2921
     46 H           3.4099    1.1336    0.0000 H       1  UNL1        0.0535
     47 H           2.3361    1.1377    0.0000 H       1  UNL1        0.0535
     48 H          11.6578   -2.8493    0.0000 H       1  UNL1        0.2923
     49 H          11.9035    2.3160    0.0000 H       1  UNL1        0.0274
     50 H          10.1592    3.3698    0.0000 H       1  UNL1        0.0274
     51 H           9.3149    3.1331    0.0000 H       1  UNL1        0.0274
     52 H           9.5516    2.2888    0.0000 H       1  UNL1        0.0274
     53 H          12.1206    3.1655    0.0000 H       1  UNL1        0.0274
     54 H          11.2711    3.3826    0.0000 H       1  UNL1        0.0274
     55 H          12.2203   -1.2158    0.0000 H       1  UNL1        0.0660
     56 H          13.0663   -0.9856    0.0000 H       1  UNL1        0.0660
     57 H          12.8361   -0.1396    0.0000 H       1  UNL1        0.0660
@<TRIPOS>BOND
     1     1    13   ar
     2     1    16   ar
     3     2    14    1
     4     2    40    1
     5     3    21    1
     6     3    31    1
     7     4    17    1
     8     4    44    1
     9     5    18    1
    10     5    45    1
    11     6    15    2
    12     7    23    1
    13     7    48    1
    14     8    11   ar
    15     8    15   ar
    16     8    16   ar
    17     9    13   ar
    18     9    14   ar
    19     9    15   ar
    20    10    12    1
    21    10    14   ar
    22    10    18   ar
    23    11    19    1
    24    11    21   ar
    25    12    17    1
    26    12    32    1
    27    12    33    1
    28    13    20   ar
    29    16    22   ar
    30    17    24    1
    31    17    34    1
    32    18    20   ar
    33    19    25    1
    34    19    35    1
    35    19    36    1
    36    20    37    1
    37    21    23   ar
    38    22    23   ar
    39    22    38    1
    40    24    27    1
    41    24    28    2
    42    25    26    2
    43    25    39    1
    44    26    29    1
    45    26    30    1
    46    27    41    1
    47    27    42    1
    48    27    43    1
    49    28    46    1
    50    28    47    1
    51    29    49    1
    52    29    53    1
    53    29    54    1
    54    30    50    1
    55    30    51    1
    56    30    52    1
    57    31    55    1
    58    31    56    1
    59    31    57    1
