@<TRIPOS>MOLECULE
IMPHY003705
 72 76 0 0 0
SMALL
GASTEIGER

@<TRIPOS>ATOM
      1 O           5.5959   -0.2078    0.0000 O.3     1  UNL1       -0.4828
      2 O           6.1376   -2.8209    0.0000 O.2     1  UNL1       -0.2748
      3 O           8.9787    0.1267    0.0000 O.2     1  UNL1       -0.2758
      4 O           2.5370   -3.1157    0.0000 O.3     1  UNL1       -0.5068
      5 N           7.7129   -1.8571    0.0000 N.am    1  UNL1       -0.3008
      6 N           9.4677    2.4980    0.0000 N.3     1  UNL1       -0.3089
      7 N          10.2764    0.3611    0.0000 N.am    1  UNL1       -0.3152
      8 N          11.6719   -0.3761    0.0000 N.3     1  UNL1       -0.3159
      9 C           6.9898   -1.0126    0.0000 C.3     1  UNL1        0.1051
     10 C           6.0010   -1.1156    0.0000 C.3     1  UNL1        0.1403
     11 C           7.1990   -0.0408    0.0000 C.ar    1  UNL1        0.0104
     12 C           6.5909   -1.9296    0.0000 C.2     1  UNL1        0.2270
     13 C           6.3329    0.4592    0.0000 C.ar    1  UNL1        0.1255
     14 C           8.4639    2.3762    0.0000 C.3     1  UNL1        0.0412
     15 C           8.0650    1.4592    0.0000 C.ar    1  UNL1       -0.0295
     16 C           8.0650    0.4592    0.0000 C.ar    1  UNL1       -0.0496
     17 C           5.1350   -1.6157    0.0000 C.ar    1  UNL1       -0.0061
     18 C           8.6136   -2.3167    0.0000 C.3     1  UNL1        0.0147
     19 C           8.3355   -1.0746    0.0000 C.3     1  UNL1        0.0161
     20 C           6.3329    1.4592    0.0000 C.ar    1  UNL1       -0.0193
     21 C           9.6231   -2.3743    0.0000 C.3     1  UNL1       -0.0360
     22 C           9.3809    1.9774    0.0000 C.3     1  UNL1        0.0434
     23 C           7.1990    1.9592    0.0000 C.ar    1  UNL1       -0.0536
     24 C           9.3245   -1.2226    0.0000 C.3     1  UNL1       -0.0215
     25 C          10.5701   -2.0200    0.0000 C.3     1  UNL1       -0.0390
     26 C          10.4354    2.2048    0.0000 C.3     1  UNL1       -0.0024
     27 C          10.1285   -0.6279    0.0000 C.3     1  UNL1        0.0130
     28 C          11.2028    1.5464    0.0000 C.3     1  UNL1       -0.0278
     29 C          11.2940   -1.3140    0.0000 C.3     1  UNL1       -0.0041
     30 C           4.2690   -1.1156    0.0000 C.ar    1  UNL1       -0.0516
     31 C           5.1351   -2.6157    0.0000 C.ar    1  UNL1       -0.0516
     32 C           9.4939    0.9838    0.0000 C.2     1  UNL1        0.2148
     33 C          11.6397    0.6345    0.0000 C.3     1  UNL1       -0.0030
     34 C           3.4030   -1.6156    0.0000 C.ar    1  UNL1       -0.0198
     35 C           4.2690   -3.1157    0.0000 C.ar    1  UNL1       -0.0198
     36 C           3.4030   -2.6157    0.0000 C.ar    1  UNL1        0.1169
     37 H           7.6755   -0.5103    0.0000 H       1  UNL1        0.0484
     38 H           6.1924   -1.7054    0.0000 H       1  UNL1        0.0795
     39 H           8.1525    3.1672    0.0000 H       1  UNL1        0.0515
     40 H           8.6019    0.1492    0.0000 H       1  UNL1        0.0625
     41 H           8.1448   -2.7226    0.0000 H       1  UNL1        0.0464
     42 H           8.7756   -1.7183    0.0000 H       1  UNL1        0.0464
     43 H           8.5323   -0.4867    0.0000 H       1  UNL1        0.0465
     44 H           7.7907   -0.7787    0.0000 H       1  UNL1        0.0465
     45 H           5.7960    1.7692    0.0000 H       1  UNL1        0.0654
     46 H           9.3577   -2.9346    0.0000 H       1  UNL1        0.0281
     47 H           9.5301   -1.7613    0.0000 H       1  UNL1        0.0281
     48 H           9.9997    1.9394    0.0000 H       1  UNL1        0.0377
     49 H           9.5257    2.5802    0.0000 H       1  UNL1        0.0377
     50 H           7.1990    2.5792    0.0000 H       1  UNL1        0.0622
     51 H           9.0772   -1.7911    0.0000 H       1  UNL1        0.0295
     52 H           9.8097   -1.6086    0.0000 H       1  UNL1        0.0295
     53 H           9.5214    3.1157    0.0000 H       1  UNL1        0.1225
     54 H          10.5532   -2.6398    0.0000 H       1  UNL1        0.0278
     55 H          10.2380   -1.4965    0.0000 H       1  UNL1        0.0278
     56 H          10.9863    2.4891    0.0000 H       1  UNL1        0.0425
     57 H          10.1372    1.6612    0.0000 H       1  UNL1        0.0425
     58 H          10.3556   -1.2048    0.0000 H       1  UNL1        0.0462
     59 H          10.7445   -0.5578    0.0000 H       1  UNL1        0.0462
     60 H          11.8216    1.5845    0.0000 H       1  UNL1        0.0290
     61 H          10.7108    1.1691    0.0000 H       1  UNL1        0.0290
     62 H          11.5283   -1.8880    0.0000 H       1  UNL1        0.0424
     63 H          10.7790   -0.9688    0.0000 H       1  UNL1        0.0424
     64 H           4.2690   -0.4956    0.0000 H       1  UNL1        0.0623
     65 H           5.6720   -2.9257    0.0000 H       1  UNL1        0.0623
     66 H          12.2214    0.4199    0.0000 H       1  UNL1        0.0424
     67 H          11.0374    0.4875    0.0000 H       1  UNL1        0.0424
     68 H          10.8533    0.5883    0.0000 H       1  UNL1        0.1487
     69 H          12.2824   -0.4844    0.0000 H       1  UNL1        0.1219
     70 H           2.8660   -1.3056    0.0000 H       1  UNL1        0.0654
     71 H           4.2690   -3.7357    0.0000 H       1  UNL1        0.0654
     72 H           2.0000   -2.8056    0.0000 H       1  UNL1        0.2921
@<TRIPOS>BOND
     1     1    10    1
     2     1    13    1
     3     2    12    2
     4     3    32    2
     5     4    36    1
     6     4    72    1
     7     5    12   am
     8     5    18    1
     9     5    19    1
    10     6    14    1
    11     6    26    1
    12     6    53    1
    13     7    27    1
    14     7    32   am
    15     7    68    1
    16     8    29    1
    17     8    33    1
    18     8    69    1
    19     9    10    1
    20     9    11    1
    21     9    12    1
    22     9    37    1
    23    10    17    1
    24    10    38    1
    25    11    13   ar
    26    11    16   ar
    27    13    20   ar
    28    14    15    1
    29    14    22    1
    30    14    39    1
    31    15    16   ar
    32    15    23   ar
    33    16    40    1
    34    17    30   ar
    35    17    31   ar
    36    18    21    1
    37    18    41    1
    38    18    42    1
    39    19    24    1
    40    19    43    1
    41    19    44    1
    42    20    23   ar
    43    20    45    1
    44    21    25    1
    45    21    46    1
    46    21    47    1
    47    22    32    1
    48    22    48    1
    49    22    49    1
    50    23    50    1
    51    24    27    1
    52    24    51    1
    53    24    52    1
    54    25    29    1
    55    25    54    1
    56    25    55    1
    57    26    28    1
    58    26    56    1
    59    26    57    1
    60    27    58    1
    61    27    59    1
    62    28    33    1
    63    28    60    1
    64    28    61    1
    65    29    62    1
    66    29    63    1
    67    30    34   ar
    68    30    64    1
    69    31    35   ar
    70    31    65    1
    71    33    66    1
    72    33    67    1
    73    34    36   ar
    74    34    70    1
    75    35    36   ar
    76    35    71    1
