@<TRIPOS>MOLECULE
IMPHY005962
 23 23 0 0 0
SMALL
GASTEIGER

@<TRIPOS>ATOM
      1 O           4.5576    1.0116    0.0000 O.3     1  UNL1       -0.3407
      2 O           5.6454   -1.3362    0.0000 O.3     1  UNL1       -0.3721
      3 O           3.4699   -1.3362    0.0000 O.3     1  UNL1       -0.3864
      4 O           6.3177    0.7329    0.0000 O.3     1  UNL1       -0.3649
      5 O           2.5896    1.7110    0.0000 O.3     1  UNL1       -0.3924
      6 C           4.0576   -0.5272    0.0000 C.3     1  UNL1        0.1143
      7 C           5.0576   -0.5272    0.0000 C.3     1  UNL1        0.1370
      8 C           3.7486    0.4239    0.0000 C.3     1  UNL1        0.1131
      9 C           5.3667    0.4239    0.0000 C.3     1  UNL1        0.1856
     10 C           2.7976    0.7329    0.0000 C.3     1  UNL1        0.0730
     11 C           6.6400   -1.2317    0.0000 C.3     1  UNL1        0.0371
     12 H           3.2181   -0.3942    0.0000 H       1  UNL1        0.0648
     13 H           4.6718   -1.2846    0.0000 H       1  UNL1        0.0674
     14 H           3.6156    1.2634    0.0000 H       1  UNL1        0.0647
     15 H           5.9677   -0.1772    0.0000 H       1  UNL1        0.0936
     16 H           2.1779    0.7112    0.0000 H       1  UNL1        0.0584
     17 H           2.7113    0.1189    0.0000 H       1  UNL1        0.0584
     18 H           3.7220   -1.9026    0.0000 H       1  UNL1        0.2100
     19 H           6.4466    1.3393    0.0000 H       1  UNL1        0.2126
     20 H           6.7048   -1.8483    0.0000 H       1  UNL1        0.0524
     21 H           7.2566   -1.1669    0.0000 H       1  UNL1        0.0524
     22 H           6.5751   -0.6151    0.0000 H       1  UNL1        0.0524
     23 H           2.0000    1.9026    0.0000 H       1  UNL1        0.2095
@<TRIPOS>BOND
     1     1     8    1
     2     1     9    1
     3     2     7    1
     4     2    11    1
     5     3     6    1
     6     3    18    1
     7     4     9    1
     8     4    19    1
     9     5    10    1
    10     5    23    1
    11     6     7    1
    12     6     8    1
    13     6    12    1
    14     7     9    1
    15     7    13    1
    16     8    10    1
    17     8    14    1
    18     9    15    1
    19    10    16    1
    20    10    17    1
    21    11    20    1
    22    11    21    1
    23    11    22    1
