@<TRIPOS>MOLECULE
IMPHY002635
 34 37 0 0 0
SMALL
GASTEIGER

@<TRIPOS>ATOM
      1 O           2.0095   -0.5982    0.0000 O.3     1  UNL1       -0.4865
      2 O           3.7066    3.4007    0.0000 O.3     1  UNL1       -0.4914
      3 O           2.0046    2.3871    0.0000 O.3     1  UNL1       -0.5030
      4 O           3.7066   -3.5972    0.0000 O.3     1  UNL1       -0.5066
      5 C           3.7416    0.4018    0.0000 C.ar    1  UNL1       -0.0008
      6 C           3.7416   -0.5982    0.0000 C.ar    1  UNL1        0.0280
      7 C           4.6355    0.9364    0.0000 C.ar    1  UNL1       -0.0352
      8 C           5.5416    0.4226    0.0000 C.3     1  UNL1       -0.0230
      9 C           5.5416   -0.6190    0.0000 C.3     1  UNL1       -0.0229
     10 C           4.6355   -1.1329    0.0000 C.ar    1  UNL1       -0.0324
     11 C           2.8755    0.9018    0.0000 C.ar    1  UNL1        0.0427
     12 C           2.8755   -1.0982    0.0000 C.ar    1  UNL1        0.1324
     13 C           2.0095    0.4018    0.0000 C.3     1  UNL1        0.1187
     14 C           4.5977    1.9274    0.0000 C.ar    1  UNL1       -0.0125
     15 C           2.8743    1.8935    0.0000 C.ar    1  UNL1        0.1656
     16 C           4.5977   -2.1239    0.0000 C.ar    1  UNL1       -0.0162
     17 C           3.7263    2.4009    0.0000 C.ar    1  UNL1        0.1619
     18 C           2.8743   -2.0899    0.0000 C.ar    1  UNL1        0.0222
     19 C           3.7263   -2.5974    0.0000 C.ar    1  UNL1        0.1206
     20 C           4.5627    3.9177    0.0000 C.3     1  UNL1        0.0790
     21 H           6.1524    0.3165    0.0000 H       1  UNL1        0.0317
     22 H           5.7506    1.0063    0.0000 H       1  UNL1        0.0317
     23 H           5.7506   -1.2027    0.0000 H       1  UNL1        0.0317
     24 H           6.1524   -0.5129    0.0000 H       1  UNL1        0.0317
     25 H           1.7975    0.9844    0.0000 H       1  UNL1        0.0749
     26 H           1.3989    0.2941    0.0000 H       1  UNL1        0.0749
     27 H           5.1245    2.2544    0.0000 H       1  UNL1        0.0658
     28 H           5.1245   -2.4509    0.0000 H       1  UNL1        0.0657
     29 H           2.3351   -2.3959    0.0000 H       1  UNL1        0.0691
     30 H           2.0000    3.0070    0.0000 H       1  UNL1        0.2923
     31 H           4.2374   -3.9177    0.0000 H       1  UNL1        0.2921
     32 H           4.8832    3.3870    0.0000 H       1  UNL1        0.0660
     33 H           5.0934    4.2382    0.0000 H       1  UNL1        0.0660
     34 H           4.2422    4.4484    0.0000 H       1  UNL1        0.0660
@<TRIPOS>BOND
     1     1    12    1
     2     1    13    1
     3     2    17    1
     4     2    20    1
     5     3    15    1
     6     3    30    1
     7     4    19    1
     8     4    31    1
     9     5     6    1
    10     5     7   ar
    11     5    11   ar
    12     6    10   ar
    13     6    12   ar
    14     7     8    1
    15     7    14   ar
    16     8     9    1
    17     8    21    1
    18     8    22    1
    19     9    10    1
    20     9    23    1
    21     9    24    1
    22    10    16   ar
    23    11    13    1
    24    11    15   ar
    25    12    18   ar
    26    13    25    1
    27    13    26    1
    28    14    17   ar
    29    14    27    1
    30    15    17   ar
    31    16    19   ar
    32    16    28    1
    33    18    19   ar
    34    18    29    1
    35    20    32    1
    36    20    33    1
    37    20    34    1
