@<TRIPOS>MOLECULE
IMPHY002554
 67 72 0 0 0
SMALL
GASTEIGER

@<TRIPOS>ATOM
      1 O           9.1999   -3.3107    0.0000 O.3     1  UNL1       -0.4817
      2 O           6.4198   -0.1552    0.0000 O.2     1  UNL1       -0.4537
      3 O           7.3177   -4.7313    0.0000 O.3     1  UNL1       -0.5032
      4 O           5.5596   -1.6590    0.0000 O.3     1  UNL1       -0.5059
      5 O           9.0836    1.3694    0.0000 O.2     1  UNL1       -0.2866
      6 O           4.4682    3.0492    0.0000 O.3     1  UNL1       -0.4811
      7 O           8.2023    2.9820    0.0000 O.3     1  UNL1       -0.5052
      8 C           9.0618   -1.6621    0.0000 C.3     1  UNL1        0.0320
      9 C           9.6798   -2.4404    0.0000 C.3     1  UNL1        0.1124
     10 C           8.1958   -2.1621    0.0000 C.ar    1  UNL1        0.0192
     11 C           9.0618   -0.6621    0.0000 C.3     1  UNL1       -0.0099
     12 C           8.2119   -3.2036    0.0000 C.ar    1  UNL1        0.1669
     13 C           7.3298   -1.6621    0.0000 C.ar    1  UNL1        0.0663
     14 C           8.1958   -0.1621    0.0000 C.ar    1  UNL1        0.0437
     15 C           7.3298   -0.6621    0.0000 C.ar    1  UNL1        0.1463
     16 C          10.5350   -2.9587    0.0000 C.3     1  UNL1       -0.0246
     17 C          10.4369   -1.7872    0.0000 C.3     1  UNL1       -0.0246
     18 C           7.3138   -3.7314    0.0000 C.ar    1  UNL1        0.1623
     19 C           6.4198   -2.1689    0.0000 C.ar    1  UNL1        0.1315
     20 C           8.2119    0.8794    0.0000 C.ar    1  UNL1        0.1998
     21 C           7.3138    1.4072    0.0000 C.ar    1  UNL1        0.1066
     22 C           6.4118   -3.2105    0.0000 C.ar    1  UNL1        0.0257
     23 C           6.4118    0.8864    0.0000 C.ar    1  UNL1        0.1498
     24 C           5.4639    1.4143    0.0000 C.ar    1  UNL1        0.0417
     25 C           7.3306    2.4920    0.0000 C.ar    1  UNL1        0.1418
     26 C           5.4555    2.4993    0.0000 C.ar    1  UNL1        0.1393
     27 C           6.3951    3.0418    0.0000 C.ar    1  UNL1        0.0591
     28 C           4.4594    4.1793    0.0000 C.3     1  UNL1        0.1235
     29 C           4.6037    0.9043    0.0000 C.3     1  UNL1       -0.0022
     30 C           6.4126    4.1718    0.0000 C.2     1  UNL1       -0.0478
     31 C           5.4382    4.7444    0.0000 C.2     1  UNL1       -0.0408
     32 C           3.9561    5.0434    0.0000 C.3     1  UNL1       -0.0215
     33 C           3.4594    4.1755    0.0000 C.3     1  UNL1       -0.0215
     34 C           3.7319    1.3943    0.0000 C.2     1  UNL1       -0.0807
     35 C           2.8718    0.8843    0.0000 C.2     1  UNL1       -0.0793
     36 C           2.0000    1.3742    0.0000 C.3     1  UNL1       -0.0440
     37 C           2.8833   -0.1156    0.0000 C.3     1  UNL1       -0.0440
     38 H           9.6473   -1.4580    0.0000 H       1  UNL1        0.0392
     39 H           9.6724   -0.7698    0.0000 H       1  UNL1        0.0323
     40 H           9.2739   -0.0795    0.0000 H       1  UNL1        0.0323
     41 H          10.8419   -2.2566    0.0000 H       1  UNL1        0.0268
     42 H          10.9063   -1.3822    0.0000 H       1  UNL1        0.0268
     43 H          10.0319   -1.3178    0.0000 H       1  UNL1        0.0268
     44 H          10.2137   -3.4889    0.0000 H       1  UNL1        0.0268
     45 H          11.0653   -3.2800    0.0000 H       1  UNL1        0.0268
     46 H          10.8563   -2.4284    0.0000 H       1  UNL1        0.0268
     47 H           5.8736   -3.5185    0.0000 H       1  UNL1        0.0692
     48 H           4.2107    0.4248    0.0000 H       1  UNL1        0.0358
     49 H           5.0077    0.4340    0.0000 H       1  UNL1        0.0358
     50 H           6.7820   -5.0434    0.0000 H       1  UNL1        0.2923
     51 H           5.0191   -1.9627    0.0000 H       1  UNL1        0.2922
     52 H           6.9530    4.4756    0.0000 H       1  UNL1        0.0624
     53 H           5.4406    5.3644    0.0000 H       1  UNL1        0.0611
     54 H           3.4571    4.7955    0.0000 H       1  UNL1        0.0271
     55 H           2.8395    4.1731    0.0000 H       1  UNL1        0.0271
     56 H           3.4618    3.5555    0.0000 H       1  UNL1        0.0271
     57 H           4.4918    5.3555    0.0000 H       1  UNL1        0.0271
     58 H           3.6440    5.5792    0.0000 H       1  UNL1        0.0271
     59 H           3.4204    4.7313    0.0000 H       1  UNL1        0.0271
     60 H           8.2095    3.6020    0.0000 H       1  UNL1        0.2922
     61 H           3.7248    2.0142    0.0000 H       1  UNL1        0.0575
     62 H           2.3038    1.9147    0.0000 H       1  UNL1        0.0274
     63 H           2.2634   -0.1228    0.0000 H       1  UNL1        0.0274
     64 H           2.8905   -0.7356    0.0000 H       1  UNL1        0.0274
     65 H           3.5033   -0.1085    0.0000 H       1  UNL1        0.0274
     66 H           1.4595    1.6780    0.0000 H       1  UNL1        0.0274
     67 H           1.6962    0.8338    0.0000 H       1  UNL1        0.0274
@<TRIPOS>BOND
     1     1     9    1
     2     1    12    1
     3     2    15   ar
     4     2    23   ar
     5     3    18    1
     6     3    50    1
     7     4    19    1
     8     4    51    1
     9     5    20    2
    10     6    26    1
    11     6    28    1
    12     7    25    1
    13     7    60    1
    14     8     9    1
    15     8    10    1
    16     8    11    1
    17     8    38    1
    18     9    16    1
    19     9    17    1
    20    10    12   ar
    21    10    13   ar
    22    11    14    1
    23    11    39    1
    24    11    40    1
    25    12    18   ar
    26    13    15    1
    27    13    19   ar
    28    14    15   ar
    29    14    20   ar
    30    16    44    1
    31    16    45    1
    32    16    46    1
    33    17    41    1
    34    17    42    1
    35    17    43    1
    36    18    22   ar
    37    19    22   ar
    38    20    21   ar
    39    21    23   ar
    40    21    25   ar
    41    22    47    1
    42    23    24   ar
    43    24    26   ar
    44    24    29    1
    45    25    27   ar
    46    26    27   ar
    47    27    30    1
    48    28    31    1
    49    28    32    1
    50    28    33    1
    51    29    34    1
    52    29    48    1
    53    29    49    1
    54    30    31    2
    55    30    52    1
    56    31    53    1
    57    32    57    1
    58    32    58    1
    59    32    59    1
    60    33    54    1
    61    33    55    1
    62    33    56    1
    63    34    35    2
    64    34    61    1
    65    35    36    1
    66    35    37    1
    67    36    62    1
    68    36    66    1
    69    36    67    1
    70    37    63    1
    71    37    64    1
    72    37    65    1
