@<TRIPOS>MOLECULE
IMPHY010562
 80 85 0 0 0
SMALL
GASTEIGER

@<TRIPOS>ATOM
      1 O           4.2396    3.2094    0.0000 O.3     1  UNL1       -0.3477
      2 O           4.6396    4.8094    0.0000 O.3     1  UNL1       -0.3640
      3 O           2.8776   -4.5966    0.0000 O.3     1  UNL1       -0.4802
      4 O           2.0000   -3.1033    0.0000 O.2     1  UNL1       -0.2504
      5 C           4.6396    1.8094    0.0000 C.3     1  UNL1        0.0015
      6 C           3.7577    0.2402    0.0000 C.3     1  UNL1       -0.0193
      7 C           4.6557    0.7679    0.0000 C.3     1  UNL1       -0.0234
      8 C           3.7736    2.3094    0.0000 C.3     1  UNL1       -0.0230
      9 C           3.7493   -0.8448    0.0000 C.3     1  UNL1       -0.0051
     10 C           3.7736    3.3094    0.0000 C.3     1  UNL1        0.0223
     11 C           2.8556    0.7610    0.0000 C.3     1  UNL1       -0.0463
     12 C           2.8636    1.8026    0.0000 C.3     1  UNL1       -0.0484
     13 C           5.5057    2.3094    0.0000 C.3     1  UNL1       -0.0398
     14 C           4.6396    3.8094    0.0000 C.3     1  UNL1        0.1726
     15 C           4.2396    2.4094    0.0000 C.3     1  UNL1        0.0571
     16 C           5.6076    0.2473    0.0000 C.3     1  UNL1       -0.0305
     17 C           4.6889   -1.3873    0.0000 C.2     1  UNL1       -0.0629
     18 C           5.5057    3.3094    0.0000 C.3     1  UNL1        0.0023
     19 C           4.7064   -2.5173    0.0000 C.3     1  UNL1       -0.0031
     20 C           2.7620   -1.3947    0.0000 C.3     1  UNL1       -0.0424
     21 C           3.7320   -3.0899    0.0000 C.3     1  UNL1        0.0741
     22 C           2.7742    0.0590    0.0000 C.3     1  UNL1       -0.0585
     23 C           5.6244   -0.8376    0.0000 C.2     1  UNL1       -0.0836
     24 C           2.7532   -2.5248    0.0000 C.3     1  UNL1       -0.0359
     25 C           2.7645   -0.6711    0.0000 C.3     1  UNL1       -0.0553
     26 C           3.2736    4.1755    0.0000 C.3     1  UNL1       -0.0546
     27 C           2.7736    3.3094    0.0000 C.3     1  UNL1       -0.0546
     28 C           5.7392   -3.0822    0.0000 C.3     1  UNL1       -0.0403
     29 C           3.7229   -4.2671    0.0000 C.3     1  UNL1       -0.0362
     30 C           5.7574   -4.2593    0.0000 C.3     1  UNL1       -0.0343
     31 C           4.7424   -4.8557    0.0000 C.3     1  UNL1       -0.0468
     32 C           2.8698   -3.5966    0.0000 C.2     1  UNL1        0.3115
     33 C           6.2673   -5.1194    0.0000 C.3     1  UNL1       -0.0598
     34 C           6.7573   -4.2477    0.0000 C.3     1  UNL1       -0.0598
     35 H           5.3835    1.2070    0.0000 H       1  UNL1        0.0315
     36 H           3.0375    2.7344    0.0000 H       1  UNL1        0.0314
     37 H           2.2456    0.8718    0.0000 H       1  UNL1        0.0271
     38 H           2.6420    0.1789    0.0000 H       1  UNL1        0.0271
     39 H           2.6591    2.3879    0.0000 H       1  UNL1        0.0268
     40 H           2.2520    1.7012    0.0000 H       1  UNL1        0.0268
     41 H           5.7177    1.7268    0.0000 H       1  UNL1        0.0273
     42 H           6.1163    2.4171    0.0000 H       1  UNL1        0.0273
     43 H           3.6526    2.6089    0.0000 H       1  UNL1        0.0566
     44 H           4.8330    2.5891    0.0000 H       1  UNL1        0.0566
     45 H           6.2200    0.1506    0.0000 H       1  UNL1        0.0310
     46 H           5.8077    0.8342    0.0000 H       1  UNL1        0.0310
     47 H           6.1163    3.2018    0.0000 H       1  UNL1        0.0317
     48 H           5.7177    3.8920    0.0000 H       1  UNL1        0.0317
     49 H           5.4342   -2.0782    0.0000 H       1  UNL1        0.0357
     50 H           2.5574   -0.8094    0.0000 H       1  UNL1        0.0274
     51 H           2.1503   -1.4961    0.0000 H       1  UNL1        0.0274
     52 H           2.6619    0.6687    0.0000 H       1  UNL1        0.0235
     53 H           2.1645   -0.0534    0.0000 H       1  UNL1        0.0235
     54 H           2.8866   -0.5508    0.0000 H       1  UNL1        0.0235
     55 H           6.1649   -1.1413    0.0000 H       1  UNL1        0.0572
     56 H           2.1432   -2.4140    0.0000 H       1  UNL1        0.0276
     57 H           2.5397   -3.1069    0.0000 H       1  UNL1        0.0276
     58 H           2.8722   -0.0606    0.0000 H       1  UNL1        0.0238
     59 H           2.1539   -0.5635    0.0000 H       1  UNL1        0.0238
     60 H           2.6568   -1.2817    0.0000 H       1  UNL1        0.0238
     61 H           3.8106    4.4855    0.0000 H       1  UNL1        0.0237
     62 H           2.9636    4.7124    0.0000 H       1  UNL1        0.0237
     63 H           2.7367    3.8655    0.0000 H       1  UNL1        0.0237
     64 H           2.7736    3.9294    0.0000 H       1  UNL1        0.0237
     65 H           2.1536    3.3094    0.0000 H       1  UNL1        0.0237
     66 H           2.7736    2.6894    0.0000 H       1  UNL1        0.0237
     67 H           6.3516   -3.1788    0.0000 H       1  UNL1        0.0276
     68 H           5.9392   -2.4953    0.0000 H       1  UNL1        0.0276
     69 H           3.1129   -4.1563    0.0000 H       1  UNL1        0.0276
     70 H           3.5094   -4.8492    0.0000 H       1  UNL1        0.0276
     71 H           4.3451   -5.3317    0.0000 H       1  UNL1        0.0271
     72 H           5.1434   -5.3286    0.0000 H       1  UNL1        0.0271
     73 H           5.1766    5.1194    0.0000 H       1  UNL1        0.2128
     74 H           5.7340   -5.4356    0.0000 H       1  UNL1        0.0235
     75 H           6.5835   -5.6528    0.0000 H       1  UNL1        0.0235
     76 H           6.8006   -4.8032    0.0000 H       1  UNL1        0.0235
     77 H           6.7644   -4.8676    0.0000 H       1  UNL1        0.0235
     78 H           7.3772   -4.2405    0.0000 H       1  UNL1        0.0235
     79 H           6.7501   -3.6277    0.0000 H       1  UNL1        0.0235
     80 H           2.3430   -4.9107    0.0000 H       1  UNL1        0.2951
@<TRIPOS>BOND
     1     1    14    1
     2     1    15    1
     3    14     2    1
     4     2    73    1
     5     3    32    1
     6     3    80    1
     7     4    32    2
     8     5     7    1
     9     5     8    1
    10     5    13    1
    11     5    15    1
    12     6     7    1
    13     6     9    1
    14     6    11    1
    15     6    22    1
    16     7    16    1
    17     7    35    1
    18     8    10    1
    19     8    12    1
    20     8    36    1
    21     9    17    1
    22     9    20    1
    23     9    25    1
    24    10    14    1
    25    10    26    1
    26    10    27    1
    27    11    12    1
    28    11    37    1
    29    11    38    1
    30    12    39    1
    31    12    40    1
    32    13    18    1
    33    13    41    1
    34    13    42    1
    35    14    18    1
    36    15    43    1
    37    15    44    1
    38    16    23    1
    39    16    45    1
    40    16    46    1
    41    17    19    1
    42    17    23    2
    43    18    47    1
    44    18    48    1
    45    19    21    1
    46    19    28    1
    47    19    49    1
    48    20    24    1
    49    20    50    1
    50    20    51    1
    51    21    24    1
    52    21    29    1
    53    21    32    1
    54    22    52    1
    55    22    53    1
    56    22    54    1
    57    23    55    1
    58    24    56    1
    59    24    57    1
    60    25    58    1
    61    25    59    1
    62    25    60    1
    63    26    61    1
    64    26    62    1
    65    26    63    1
    66    27    64    1
    67    27    65    1
    68    27    66    1
    69    28    30    1
    70    28    67    1
    71    28    68    1
    72    29    31    1
    73    29    69    1
    74    29    70    1
    75    30    31    1
    76    30    33    1
    77    30    34    1
    78    31    71    1
    79    31    72    1
    80    33    74    1
    81    33    75    1
    82    33    76    1
    83    34    77    1
    84    34    78    1
    85    34    79    1
