@<TRIPOS>MOLECULE
IMPHY013852
 20 19 0 0 0
SMALL
GASTEIGER

@<TRIPOS>ATOM
      1 O1          2.5369   -0.0950    0.0000 O.3     1  <1>        -0.4795
      2 O2          3.4030    1.4050    0.0000 O.2     1  <1>        -0.2492
      3 O3          7.7331   -0.0950    0.0000 O.3     1  <1>        -0.4774
      4 O4          6.8671    1.4050    0.0000 O.2     1  <1>        -0.2455
      5 N1          4.2690   -1.0950    0.0000 N.3     1  <1>        -0.3181
      6 C1          4.2690   -0.0950    0.0000 C.3     1  <1>         0.1074
      7 C2          5.1350    0.4050    0.0000 C.3     1  <1>         0.0041
      8 C3          6.0010   -0.0950    0.0000 C.2     1  <1>         0.0314
      9 C4          3.4030    0.4050    0.0000 C.2     1  <1>         0.3220
     10 C5          6.8671    0.4050    0.0000 C.2     1  <1>         0.3323
     11 C6          6.0010   -1.0950    0.0000 C.2     1  <1>        -0.0887
     12 H1          4.8059   -0.4050    0.0000 H       1  <1>         0.0577
     13 H2          5.5335    0.8799    0.0000 H       1  <1>         0.0336
     14 H3          4.7365    0.8799    0.0000 H       1  <1>         0.0336
     15 H4          3.7320   -1.4050    0.0000 H       1  <1>         0.1190
     16 H5          4.8059   -1.4050    0.0000 H       1  <1>         0.1190
     17 H6          5.4641   -1.4050    0.0000 H       1  <1>         0.0540
     18 H7          6.5380   -1.4050    0.0000 H       1  <1>         0.0540
     19 H8          2.0000    0.2150    0.0000 H       1  <1>         0.2951
     20 H9          8.2700    0.2150    0.0000 H       1  <1>         0.2954
@<TRIPOS>BOND
     1     1     9    1
     2     1    19    1
     3     2     9    2
     4     3    10    1
     5     3    20    1
     6     4    10    2
     7     5     6    1
     8     5    15    1
     9     5    16    1
    10     6     7    1
    11     6     9    1
    12     6    12    1
    13     7     8    1
    14     7    13    1
    15     7    14    1
    16     8    10    1
    17     8    11    2
    18    11    17    1
    19    11    18    1
