@<TRIPOS>MOLECULE
IMPHY002040
 73 75 0 0 0
SMALL
GASTEIGER

@<TRIPOS>ATOM
      1 O           5.8671   -1.2294    0.0000 O.3     1  UNL1       -0.3354
      2 O           6.8671   -2.2294    0.0000 O.3     1  UNL1       -0.3116
      3 O           5.1350   -2.2294    0.0000 O.3     1  UNL1       -0.3404
      4 O           8.1271    0.0307    0.0000 O.3     1  UNL1       -0.4500
      5 O           6.3671    1.3094    0.0000 O.3     1  UNL1       -0.3853
      6 O           6.8671   -4.2294    0.0000 O.3     1  UNL1       -0.3841
      7 O           5.1350   -5.2294    0.0000 O.3     1  UNL1       -0.3864
      8 O           8.5613   -0.8693    0.0000 O.3     1  UNL1       -0.3896
      9 O           3.4030   -4.2294    0.0000 O.3     1  UNL1       -0.3865
     10 O           4.3991    1.0088    0.0000 O.3     1  UNL1       -0.3924
     11 O           2.5369   -2.7294    0.0000 O.3     1  UNL1       -0.3924
     12 O           7.5919    1.6779    0.0000 O.2     1  UNL1       -0.2456
     13 O          11.8120    4.8703    0.0000 O.3     1  UNL1       -0.4913
     14 O          12.8824    1.5757    0.0000 O.3     1  UNL1       -0.4913
     15 O          13.2982    3.5320    0.0000 O.3     1  UNL1       -0.4885
     16 C           6.8671   -1.2294    0.0000 C.3     1  UNL1        0.2366
     17 C           7.1761   -0.2784    0.0000 C.3     1  UNL1        0.1873
     18 C           6.3671    0.3094    0.0000 C.3     1  UNL1        0.1255
     19 C           5.5580   -0.2784    0.0000 C.3     1  UNL1        0.1145
     20 C           6.0010   -2.7294    0.0000 C.3     1  UNL1        0.1913
     21 C           6.0010   -3.7294    0.0000 C.3     1  UNL1        0.1342
     22 C           5.1350   -4.2294    0.0000 C.3     1  UNL1        0.1141
     23 C           7.8181   -1.5384    0.0000 C.3     1  UNL1        0.1020
     24 C           4.2690   -3.7294    0.0000 C.3     1  UNL1        0.1119
     25 C           4.2690   -2.7294    0.0000 C.3     1  UNL1        0.1130
     26 C           4.6070    0.0307    0.0000 C.3     1  UNL1        0.0731
     27 C           3.4030   -2.2294    0.0000 C.3     1  UNL1        0.0730
     28 C           8.3351    1.0088    0.0000 C.2     1  UNL1        0.3325
     29 C           9.2861    1.3178    0.0000 C.2     1  UNL1        0.0231
     30 C           9.4940    2.2960    0.0000 C.2     1  UNL1       -0.0476
     31 C          10.4451    2.6050    0.0000 C.ar    1  UNL1       -0.0177
     32 C          11.1882    1.9358    0.0000 C.ar    1  UNL1       -0.0089
     33 C          10.6530    3.5831    0.0000 C.ar    1  UNL1       -0.0089
     34 C          11.6040    3.8921    0.0000 C.ar    1  UNL1        0.1657
     35 C          12.1393    2.2449    0.0000 C.ar    1  UNL1        0.1657
     36 C          12.3472    3.2230    0.0000 C.ar    1  UNL1        0.2035
     37 C          11.0688    5.5394    0.0000 C.3     1  UNL1        0.0790
     38 C          13.8335    1.8848    0.0000 C.3     1  UNL1        0.0790
     39 C          13.5062    4.5102    0.0000 C.3     1  UNL1        0.0791
     40 H           7.2731    0.3340    0.0000 H       1  UNL1        0.0817
     41 H           6.9195    0.5909    0.0000 H       1  UNL1        0.0659
     42 H           5.1196   -0.7168    0.0000 H       1  UNL1        0.0647
     43 H           6.0010   -2.1094    0.0000 H       1  UNL1        0.0939
     44 H           6.0010   -4.3494    0.0000 H       1  UNL1        0.0671
     45 H           4.5981   -4.5394    0.0000 H       1  UNL1        0.0648
     46 H           7.5270   -2.0859    0.0000 H       1  UNL1        0.0612
     47 H           8.3067   -1.9202    0.0000 H       1  UNL1        0.0612
     48 H           3.7320   -3.4194    0.0000 H       1  UNL1        0.0647
     49 H           4.2690   -2.1094    0.0000 H       1  UNL1        0.0647
     50 H           3.9874    0.0090    0.0000 H       1  UNL1        0.0584
     51 H           4.5207   -0.5833    0.0000 H       1  UNL1        0.0584
     52 H           5.8301    1.6194    0.0000 H       1  UNL1        0.2101
     53 H           3.8015   -1.7545    0.0000 H       1  UNL1        0.0584
     54 H           3.0044   -1.7545    0.0000 H       1  UNL1        0.0584
     55 H           6.8671   -4.8494    0.0000 H       1  UNL1        0.2101
     56 H           4.5981   -5.5394    0.0000 H       1  UNL1        0.2100
     57 H           9.1509   -1.0609    0.0000 H       1  UNL1        0.2096
     58 H           3.4030   -4.8494    0.0000 H       1  UNL1        0.2100
     59 H           3.8094    1.2004    0.0000 H       1  UNL1        0.2095
     60 H           2.0000   -2.4194    0.0000 H       1  UNL1        0.2095
     61 H           9.7468    0.9030    0.0000 H       1  UNL1        0.0689
     62 H           9.0333    2.7108    0.0000 H       1  UNL1        0.0626
     63 H          11.0593    1.3294    0.0000 H       1  UNL1        0.0661
     64 H          10.1922    3.9980    0.0000 H       1  UNL1        0.0661
     65 H          11.4837    6.0002    0.0000 H       1  UNL1        0.0660
     66 H          10.6081    5.9543    0.0000 H       1  UNL1        0.0660
     67 H          10.6539    5.0787    0.0000 H       1  UNL1        0.0660
     68 H          14.0251    1.2951    0.0000 H       1  UNL1        0.0660
     69 H          14.4231    2.0763    0.0000 H       1  UNL1        0.0660
     70 H          13.6419    2.4744    0.0000 H       1  UNL1        0.0660
     71 H          14.1126    4.3813    0.0000 H       1  UNL1        0.0660
     72 H          13.6351    5.1166    0.0000 H       1  UNL1        0.0660
     73 H          12.8997    4.6391    0.0000 H       1  UNL1        0.0660
@<TRIPOS>BOND
     1     1    16    1
     2     1    19    1
     3    16     2    1
     4    20     2    1
     5     3    20    1
     6     3    25    1
     7    17     4    1
     8     4    28    1
     9    18     5    1
    10     5    52    1
    11    21     6    1
    12     6    55    1
    13    22     7    1
    14     7    56    1
    15     8    23    1
    16     8    57    1
    17    24     9    1
    18     9    58    1
    19    10    26    1
    20    10    59    1
    21    11    27    1
    22    11    60    1
    23    12    28    2
    24    13    34    1
    25    13    37    1
    26    14    35    1
    27    14    38    1
    28    15    36    1
    29    15    39    1
    30    16    17    1
    31    16    23    1
    32    17    18    1
    33    17    40    1
    34    18    19    1
    35    18    41    1
    36    19    26    1
    37    19    42    1
    38    20    21    1
    39    20    43    1
    40    21    22    1
    41    21    44    1
    42    22    24    1
    43    22    45    1
    44    23    46    1
    45    23    47    1
    46    24    25    1
    47    24    48    1
    48    25    27    1
    49    25    49    1
    50    26    50    1
    51    26    51    1
    52    27    53    1
    53    27    54    1
    54    28    29    1
    55    29    30    2
    56    29    61    1
    57    30    31    1
    58    30    62    1
    59    31    32   ar
    60    31    33   ar
    61    32    35   ar
    62    32    63    1
    63    33    34   ar
    64    33    64    1
    65    34    36   ar
    66    35    36   ar
    67    37    65    1
    68    37    66    1
    69    37    67    1
    70    38    68    1
    71    38    69    1
    72    38    70    1
    73    39    71    1
    74    39    72    1
    75    39    73    1
