@<TRIPOS>MOLECULE
IMPHY000618
 51 55 0 0 0
SMALL
GASTEIGER

@<TRIPOS>ATOM
      1 O           8.0948    2.2928    0.0000 O.3     1  UNL1       -0.3860
      2 O           9.1565    1.7466    0.0000 O.3     1  UNL1       -0.3922
      3 O           2.0000   -1.9767    0.0000 O.2     1  UNL1       -0.4675
      4 C           6.3133    0.1310    0.0000 C.3     1  UNL1       -0.0229
      5 C           5.4124    0.5648    0.0000 C.3     1  UNL1       -0.0293
      6 C           4.5428   -0.0086    0.0000 C.3     1  UNL1       -0.0214
      7 C           6.8133    2.3216    0.0000 C.3     1  UNL1       -0.0094
      8 C           6.2065    1.3077    0.0000 C.3     1  UNL1       -0.0415
      9 C           7.2143    0.5648    0.0000 C.3     1  UNL1       -0.0156
     10 C           7.4368    1.5398    0.0000 C.3     1  UNL1        0.0923
     11 C           6.4072   -0.9064    0.0000 C.3     1  UNL1       -0.0464
     12 C           5.1898    1.5398    0.0000 C.3     1  UNL1       -0.0488
     13 C           4.6126   -1.0479    0.0000 C.3     1  UNL1       -0.0069
     14 C           5.8133    2.3216    0.0000 C.3     1  UNL1       -0.0472
     15 C           5.5511   -1.4998    0.0000 C.3     1  UNL1       -0.0451
     16 C           3.5764    0.4847    0.0000 C.3     1  UNL1       -0.0399
     17 C           4.1385    0.9061    0.0000 C.3     1  UNL1       -0.0587
     18 C           3.7209   -1.6660    0.0000 C.ar    1  UNL1       -0.0029
     19 C           8.3563    1.1468    0.0000 C.3     1  UNL1        0.0732
     20 C           2.6706   -0.1126    0.0000 C.3     1  UNL1        0.0063
     21 C           2.7433   -1.1952    0.0000 C.ar    1  UNL1        0.1083
     22 C           3.5733   -2.7344    0.0000 C.ar    1  UNL1       -0.0202
     23 C           2.5119   -2.9261    0.0000 C.ar    1  UNL1        0.0923
     24 H           4.6465    0.9336    0.0000 H       1  UNL1        0.0312
     25 H           7.0025    3.1503    0.0000 H       1  UNL1        0.0329
     26 H           5.7987    1.7748    0.0000 H       1  UNL1        0.0274
     27 H           5.6364    1.0639    0.0000 H       1  UNL1        0.0274
     28 H           7.3523   -0.0396    0.0000 H       1  UNL1        0.0299
     29 H           7.8343    0.5648    0.0000 H       1  UNL1        0.0299
     30 H           6.6680   -1.4689    0.0000 H       1  UNL1        0.0271
     31 H           7.0060   -0.7457    0.0000 H       1  UNL1        0.0271
     32 H           4.8033    2.0245    0.0000 H       1  UNL1        0.0268
     33 H           4.6312    1.2708    0.0000 H       1  UNL1        0.0268
     34 H           4.6794   -1.8952    0.0000 H       1  UNL1        0.0355
     35 H           5.9513    2.9261    0.0000 H       1  UNL1        0.0269
     36 H           5.2547    2.5906    0.0000 H       1  UNL1        0.0269
     37 H           5.1905   -2.0042    0.0000 H       1  UNL1        0.0271
     38 H           5.9863   -1.9414    0.0000 H       1  UNL1        0.0271
     39 H           3.9486    0.9805    0.0000 H       1  UNL1        0.0275
     40 H           3.1515    0.9362    0.0000 H       1  UNL1        0.0275
     41 H           4.7056    1.1567    0.0000 H       1  UNL1        0.0235
     42 H           3.8879    1.4732    0.0000 H       1  UNL1        0.0235
     43 H           3.5714    0.6554    0.0000 H       1  UNL1        0.0235
     44 H           8.0174    0.6276    0.0000 H       1  UNL1        0.0586
     45 H           8.8087    0.7228    0.0000 H       1  UNL1        0.0586
     46 H           2.4229    0.4557    0.0000 H       1  UNL1        0.0344
     47 H           2.0682   -0.2595    0.0000 H       1  UNL1        0.0344
     48 H           7.8944    2.8796    0.0000 H       1  UNL1        0.2103
     49 H           4.0207   -3.1636    0.0000 H       1  UNL1        0.0652
     50 H           9.7266    1.5029    0.0000 H       1  UNL1        0.2095
     51 H           2.2429   -3.4847    0.0000 H       1  UNL1        0.1029
@<TRIPOS>BOND
     1    10     1    1
     2     1    48    1
     3     2    19    1
     4     2    50    1
     5     3    21   ar
     6     3    23   ar
     7     4     5    1
     8     4     8    1
     9     4     9    1
    10     4    11    1
    11     5     6    1
    12     5    12    1
    13     5    24    1
    14     6    13    1
    15     6    16    1
    16     6    17    1
    17     7     8    1
    18     7    10    1
    19     7    14    1
    20     7    25    1
    21     8    26    1
    22     8    27    1
    23     9    10    1
    24     9    28    1
    25     9    29    1
    26    10    19    1
    27    11    15    1
    28    11    30    1
    29    11    31    1
    30    12    14    1
    31    12    32    1
    32    12    33    1
    33    13    15    1
    34    13    18    1
    35    13    34    1
    36    14    35    1
    37    14    36    1
    38    15    37    1
    39    15    38    1
    40    16    20    1
    41    16    39    1
    42    16    40    1
    43    17    41    1
    44    17    42    1
    45    17    43    1
    46    18    21   ar
    47    18    22   ar
    48    19    44    1
    49    19    45    1
    50    20    21    1
    51    20    46    1
    52    20    47    1
    53    22    23   ar
    54    22    49    1
    55    23    51    1
