@<TRIPOS>MOLECULE
IMPHY001556
 55 58 0 0 0
SMALL
GASTEIGER

@<TRIPOS>ATOM
      1 O           6.3301   -2.7819    0.0000 O.3     1  UNL1       -0.3302
      2 O           8.0622   -2.7819    0.0000 O.3     1  UNL1       -0.4607
      3 O           4.5981   -4.7819    0.0000 O.3     1  UNL1       -0.3864
      4 O           6.3301   -5.7819    0.0000 O.3     1  UNL1       -0.3864
      5 O           8.0622   -4.7819    0.0000 O.3     1  UNL1       -0.3829
      6 O           3.7320   -3.2819    0.0000 O.3     1  UNL1       -0.4621
      7 O           9.8181    0.2806    0.0000 O.2     1  UNL1       -0.4620
      8 O           2.8660   -1.7819    0.0000 O.2     1  UNL1       -0.2512
      9 O           7.2259    1.7906    0.0000 O.2     1  UNL1       -0.2864
     10 O           8.9733    5.7839    0.0000 O.3     1  UNL1       -0.5068
     11 C           5.4641   -4.2819    0.0000 C.3     1  UNL1        0.1130
     12 C           6.3301   -4.7819    0.0000 C.3     1  UNL1        0.1152
     13 C           5.4641   -3.2819    0.0000 C.3     1  UNL1        0.1250
     14 C           7.1962   -4.2819    0.0000 C.3     1  UNL1        0.1454
     15 C           7.1962   -3.2819    0.0000 C.3     1  UNL1        0.2308
     16 C           4.5981   -2.7819    0.0000 C.3     1  UNL1        0.1212
     17 C           8.0622   -1.7819    0.0000 C.ar    1  UNL1        0.1275
     18 C           8.9622   -1.2576    0.0000 C.ar    1  UNL1        0.0232
     19 C           7.1621   -1.2576    0.0000 C.ar    1  UNL1       -0.0189
     20 C           8.9502   -0.2160    0.0000 C.ar    1  UNL1        0.1419
     21 C           8.0861    0.2873    0.0000 C.ar    1  UNL1        0.0648
     22 C           2.8660   -2.7819    0.0000 C.2     1  UNL1        0.3040
     23 C           7.1742   -0.2160    0.0000 C.ar    1  UNL1       -0.0439
     24 C           8.0900    1.2873    0.0000 C.ar    1  UNL1        0.2001
     25 C           8.9579    1.7840    0.0000 C.ar    1  UNL1        0.0643
     26 C           2.0000   -3.2819    0.0000 C.3     1  UNL1        0.0332
     27 C           9.8220    1.2806    0.0000 C.ar    1  UNL1        0.1038
     28 C           8.9618    2.7840    0.0000 C.ar    1  UNL1       -0.0110
     29 C           9.8297    3.2806    0.0000 C.ar    1  UNL1       -0.0504
     30 C           8.0977    3.2873    0.0000 C.ar    1  UNL1       -0.0504
     31 C           9.8336    4.2806    0.0000 C.ar    1  UNL1       -0.0196
     32 C           8.1015    4.2873    0.0000 C.ar    1  UNL1       -0.0196
     33 C           8.9695    4.7840    0.0000 C.ar    1  UNL1        0.1169
     34 H           5.4641   -4.9019    0.0000 H       1  UNL1        0.0647
     35 H           6.8671   -5.0919    0.0000 H       1  UNL1        0.0648
     36 H           5.4641   -2.6619    0.0000 H       1  UNL1        0.0658
     37 H           7.7331   -3.9719    0.0000 H       1  UNL1        0.0683
     38 H           7.1962   -2.6619    0.0000 H       1  UNL1        0.1084
     39 H           4.9966   -2.3069    0.0000 H       1  UNL1        0.0724
     40 H           4.1996   -2.3069    0.0000 H       1  UNL1        0.0724
     41 H           4.5981   -5.4019    0.0000 H       1  UNL1        0.2100
     42 H           5.7932   -6.0919    0.0000 H       1  UNL1        0.2100
     43 H           8.0622   -5.4019    0.0000 H       1  UNL1        0.2102
     44 H           9.5016   -1.5634    0.0000 H       1  UNL1        0.0691
     45 H           6.6228   -1.5634    0.0000 H       1  UNL1        0.0654
     46 H           6.6421    0.1022    0.0000 H       1  UNL1        0.0627
     47 H           1.6900   -2.7449    0.0000 H       1  UNL1        0.0342
     48 H           1.4631   -3.5919    0.0000 H       1  UNL1        0.0342
     49 H           2.3100   -3.8188    0.0000 H       1  UNL1        0.0342
     50 H          10.3601    1.5886    0.0000 H       1  UNL1        0.1037
     51 H          10.3654    2.9686    0.0000 H       1  UNL1        0.0625
     52 H           7.5595    2.9794    0.0000 H       1  UNL1        0.0625
     53 H          10.3717    4.5885    0.0000 H       1  UNL1        0.0654
     54 H           7.5658    4.5994    0.0000 H       1  UNL1        0.0654
     55 H           9.5114    6.0919    0.0000 H       1  UNL1        0.2921
@<TRIPOS>BOND
     1     1    13    1
     2     1    15    1
     3    15     2    1
     4     2    17    1
     5    11     3    1
     6     3    41    1
     7    12     4    1
     8     4    42    1
     9    14     5    1
    10     5    43    1
    11     6    16    1
    12     6    22    1
    13     7    20   ar
    14     7    27   ar
    15     8    22    2
    16     9    24    2
    17    10    33    1
    18    10    55    1
    19    11    12    1
    20    11    13    1
    21    11    34    1
    22    12    14    1
    23    12    35    1
    24    13    16    1
    25    13    36    1
    26    14    15    1
    27    14    37    1
    28    15    38    1
    29    16    39    1
    30    16    40    1
    31    17    18   ar
    32    17    19   ar
    33    18    20   ar
    34    18    44    1
    35    19    23   ar
    36    19    45    1
    37    20    21   ar
    38    21    23   ar
    39    21    24   ar
    40    22    26    1
    41    23    46    1
    42    24    25   ar
    43    25    27   ar
    44    25    28    1
    45    26    47    1
    46    26    48    1
    47    26    49    1
    48    27    50    1
    49    28    29   ar
    50    28    30   ar
    51    29    31   ar
    52    29    51    1
    53    30    32   ar
    54    30    52    1
    55    31    33   ar
    56    31    53    1
    57    32    33   ar
    58    32    54    1
