@<TRIPOS>MOLECULE
IMPHY008964
 34 39 0 0 0
SMALL
GASTEIGER

@<TRIPOS>ATOM
      1 O           7.7848    2.5125    0.0000 O.3     1  UNL1       -0.3577
      2 O          10.8583   -0.1411    0.0000 O.3     1  UNL1       -0.4594
      3 O           2.9755   -0.3037    0.0000 O.2     1  UNL1       -0.2910
      4 O          12.5522   -0.6948    0.0000 O.2     1  UNL1       -0.2500
      5 O          13.7339    0.9074    0.0000 O.3     1  UNL1       -0.2197
      6 C           6.5251   -0.3608    0.0000 C.3     1  UNL1        0.0002
      7 C           6.5251   -1.3608    0.0000 C.3     1  UNL1        0.0003
      8 C           7.4714   -0.0561    0.0000 C.3     1  UNL1        0.0055
      9 C           5.6591   -1.8608    0.0000 C.3     1  UNL1        0.0050
     10 C           4.7931   -1.3608    0.0000 C.3     1  UNL1        0.0106
     11 C           5.6591    0.1392    0.0000 C.3     1  UNL1        0.0000
     12 C           7.4714   -1.6655    0.0000 C.3     1  UNL1        0.0000
     13 C           8.0550   -0.8608    0.0000 C.3     1  UNL1        0.0002
     14 C           7.7820    0.8945    0.0000 C.3     1  UNL1        0.0627
     15 C           4.7931   -0.3608    0.0000 C.3     1  UNL1        0.0007
     16 C           3.8831   -1.8676    0.0000 C.3     1  UNL1        0.0706
     17 C           6.5251    0.6392    0.0000 C.3     1  UNL1        0.0000
     18 C           5.6752   -2.9023    0.0000 C.3     1  UNL1        0.0254
     19 C           9.7000    1.4590    0.0000 C.3     1  UNL1        0.1225
     20 C           7.1956    1.7045    0.0000 C.3     1  UNL1        0.1450
     21 C           3.8751   -2.9092    0.0000 C.2     1  UNL1       -0.0379
     22 C           4.7771   -3.4301    0.0000 C.2     1  UNL1       -0.0339
     23 C          10.6689    3.2158    0.0000 C.3     1  UNL1        0.0640
     24 C           9.7017    2.4590    0.0000 C.3     1  UNL1        0.1084
     25 C           3.8908   -0.8677    0.0000 C.3     1  UNL1        0.0118
     26 C           2.9562   -1.3036    0.0000 C.2     1  UNL1        0.1754
     27 C          12.0044    1.0010    0.0000 C.3     1  UNL1        0.1567
     28 C           2.9396   -3.4590    0.0000 C.3     1  UNL1        0.0481
     29 C          11.8463    0.0136    0.0000 C.2     1  UNL1        0.3209
     30 C           9.7034    3.4590    0.0000 C.3     1  UNL1        0.0304
     31 C           2.0084   -1.8315    0.0000 C.2     1  UNL1        0.0335
     32 C           2.0000   -2.9165    0.0000 C.2     1  UNL1       -0.0188
     33 C          12.8962    1.4534    0.0000 C.3     1  UNL1        0.1955
     34 H           9.6986    0.6590    0.0000 H       1  UNL1        0.0748
@<TRIPOS>BOND
     1     1    20    1
     2     1    24    1
     3     2    19    1
     4     2    29    1
     5     3    26    2
     6     4    29    2
     7     5    33    1
     8     6     7    1
     9     6     8    1
    10     6    11    1
    11     6    17    1
    12     7     9    1
    13     7    12    1
    14     8    13    1
    15     8    14    1
    16     9    10    1
    17     9    18    1
    18    10    15    1
    19    10    16    1
    20    11    15    1
    21    12    13    1
    22    14    19    1
    23    14    20    1
    24    16    21    1
    25    16    25    1
    26    16    26    1
    27    18    22    1
    28    19    23    1
    29    19    34    1
    30    21    22    2
    31    21    28    1
    32    23    24    1
    33    24    27    1
    34    24    30    1
    35    26    31    1
    36    27    29    1
    37    27    33    1
    38    28    32    1
    39    31    32    2
