@<TRIPOS>MOLECULE
IMPHY005506
 16 16 0 0 0
SMALL
GASTEIGER

@<TRIPOS>ATOM
      1 O           4.2690    0.9400    0.0000 O.3     1  UNL1       -0.4057
      2 O           2.5369   -0.0600    0.0000 O.3     1  UNL1       -0.5032
      3 N           5.1350    1.4400    0.0000 N.3     1  UNL1       -0.1683
      4 C           4.2690   -0.0600    0.0000 C.ar    1  UNL1        0.1889
      5 C           3.4030   -0.5600    0.0000 C.ar    1  UNL1        0.1609
      6 C           5.1350   -0.5600    0.0000 C.ar    1  UNL1       -0.0138
      7 C           3.4030   -1.5600    0.0000 C.ar    1  UNL1       -0.0164
      8 C           5.1350   -1.5600    0.0000 C.ar    1  UNL1       -0.0580
      9 C           4.2690   -2.0600    0.0000 C.ar    1  UNL1       -0.0581
     10 H           5.6720   -0.2500    0.0000 H       1  UNL1        0.0656
     11 H           2.8660   -1.8700    0.0000 H       1  UNL1        0.0655
     12 H           5.6720   -1.8700    0.0000 H       1  UNL1        0.0619
     13 H           4.2690   -2.6800    0.0000 H       1  UNL1        0.0619
     14 H           2.0000   -0.3700    0.0000 H       1  UNL1        0.2923
     15 H           5.1350    2.0600    0.0000 H       1  UNL1        0.1633
     16 H           5.6720    1.1300    0.0000 H       1  UNL1        0.1633
@<TRIPOS>BOND
     1     1     3    1
     2     1     4    1
     3     2     5    1
     4     2    14    1
     5     3    15    1
     6     3    16    1
     7     4     5   ar
     8     4     6   ar
     9     5     7   ar
    10     6     8   ar
    11     6    10    1
    12     7     9   ar
    13     7    11    1
    14     8     9   ar
    15     8    12    1
    16     9    13    1
