@<TRIPOS>MOLECULE
IMPHY014640
 66 72 0 0 0
SMALL
GASTEIGER

@<TRIPOS>ATOM
      1 O           8.3240   -0.4315    0.0000 O.3     1  UNL1       -0.3571
      2 O           5.1806    1.0643    0.0000 O.3     1  UNL1       -0.3815
      3 O           4.5037   -0.6106    0.0000 O.3     1  UNL1       -0.3765
      4 O           7.4120    1.4952    0.0000 O.3     1  UNL1       -0.3851
      5 O           9.3662   -0.0024    0.0000 O.3     1  UNL1       -0.3910
      6 O           5.6542    2.7909    0.0000 O.3     1  UNL1       -0.3793
      7 O           3.0489   -1.8953    0.0000 O.3     1  UNL1       -0.3943
      8 N           5.9290   -1.1292    0.0000 N.3     1  UNL1       -0.2707
      9 C           6.5467   -1.6264    0.0000 C.3     1  UNL1        0.0247
     10 C           5.6457   -1.1925    0.0000 C.3     1  UNL1        0.0093
     11 C           6.6535   -0.4496    0.0000 C.3     1  UNL1        0.0552
     12 C           6.0467    0.5643    0.0000 C.3     1  UNL1        0.1372
     13 C           7.4476   -1.1925    0.0000 C.3     1  UNL1       -0.0228
     14 C           4.7761   -1.7659    0.0000 C.3     1  UNL1        0.0396
     15 C           7.6702   -0.2175    0.0000 C.3     1  UNL1        0.0206
     16 C           7.0467    0.5643    0.0000 C.3     1  UNL1        0.1063
     17 C           5.4232   -0.2175    0.0000 C.3     1  UNL1        0.0953
     18 C           6.6405   -2.6638    0.0000 C.3     1  UNL1        0.0685
     19 C           6.0387   -0.1419    0.0000 C.3     1  UNL1        0.1206
     20 C           4.4373    0.4637    0.0000 C.3     1  UNL1       -0.0416
     21 C           4.7941    1.3838    0.0000 C.3     1  UNL1        0.0120
     22 C           8.4507    0.3999    0.0000 C.3     1  UNL1        0.0662
     23 C           4.8460   -2.8052    0.0000 C.3     1  UNL1       -0.0389
     24 C           5.7844   -3.2571    0.0000 C.3     1  UNL1       -0.0252
     25 C           6.6201    1.4542    0.0000 C.3     1  UNL1        0.0059
     26 C           5.6928    1.7916    0.0000 C.3     1  UNL1        0.0662
     27 C           3.8752   -1.3320    0.0000 C.3     1  UNL1        0.0538
     28 C           5.4814   -2.0235    0.0000 C.3     1  UNL1       -0.0012
     29 C           6.1147   -2.9834    0.0000 C.3     1  UNL1       -0.0523
     30 C           3.7035   -0.0107    0.0000 C.3     1  UNL1        0.0369
     31 C           4.7696    3.2571    0.0000 C.3     1  UNL1        0.0368
     32 H           4.8799   -0.8237    0.0000 H       1  UNL1        0.0341
     33 H           7.2735    0.1319    0.0000 H       1  UNL1        0.0500
     34 H           7.2585   -2.0212    0.0000 H       1  UNL1        0.0312
     35 H           7.8593    0.6111    0.0000 H       1  UNL1        0.0357
     36 H           4.8364   -0.0172    0.0000 H       1  UNL1        0.0629
     37 H           7.1991   -2.9328    0.0000 H       1  UNL1        0.0603
     38 H           5.4649    0.4852    0.0000 H       1  UNL1        0.0776
     39 H           4.1628   -0.0922    0.0000 H       1  UNL1        0.0272
     40 H           3.8698    0.7133    0.0000 H       1  UNL1        0.0272
     41 H           4.1764    1.9678    0.0000 H       1  UNL1        0.0351
     42 H           8.6566    0.9848    0.0000 H       1  UNL1        0.0600
     43 H           4.6765   -3.4016    0.0000 H       1  UNL1        0.0273
     44 H           4.2294   -2.7403    0.0000 H       1  UNL1        0.0273
     45 H           6.2196   -3.6987    0.0000 H       1  UNL1        0.0290
     46 H           5.4238   -3.7615    0.0000 H       1  UNL1        0.0290
     47 H           6.6719    2.0720    0.0000 H       1  UNL1        0.0319
     48 H           7.2299    1.5662    0.0000 H       1  UNL1        0.0319
     49 H           5.1652    2.1173    0.0000 H       1  UNL1        0.0600
     50 H           3.4422   -0.8882    0.0000 H       1  UNL1        0.0564
     51 H           4.2371   -0.8286    0.0000 H       1  UNL1        0.0564
     52 H           5.1806    1.6843    0.0000 H       1  UNL1        0.2105
     53 H           5.0310   -2.4496    0.0000 H       1  UNL1        0.0425
     54 H           4.9836   -1.6539    0.0000 H       1  UNL1        0.0425
     55 H           8.0251    1.5876    0.0000 H       1  UNL1        0.2103
     56 H           9.8660    0.3644    0.0000 H       1  UNL1        0.2098
     57 H           6.6322   -2.6420    0.0000 H       1  UNL1        0.0242
     58 H           6.4561   -3.5009    0.0000 H       1  UNL1        0.0242
     59 H           5.5972   -3.3248    0.0000 H       1  UNL1        0.0242
     60 H           2.4903   -1.6263    0.0000 H       1  UNL1        0.2094
     61 H           3.3316   -0.5068    0.0000 H       1  UNL1        0.0524
     62 H           3.2074    0.3611    0.0000 H       1  UNL1        0.0524
     63 H           4.0754    0.4853    0.0000 H       1  UNL1        0.0524
     64 H           4.4805    2.7087    0.0000 H       1  UNL1        0.0524
     65 H           4.2211    3.5462    0.0000 H       1  UNL1        0.0524
     66 H           5.0587    3.8056    0.0000 H       1  UNL1        0.0524
@<TRIPOS>BOND
     1     1    18    1
     2     1    19    1
     3    12     2    1
     4     2    52    1
     5    17     3    1
     6     3    30    1
     7    16     4    1
     8     4    55    1
     9    22     5    1
    10     5    56    1
    11    26     6    1
    12     6    31    1
    13     7    27    1
    14     7    60    1
    15     8    11    1
    16     8    19    1
    17     8    28    1
    18     9    10    1
    19     9    11    1
    20     9    13    1
    21     9    18    1
    22    10    14    1
    23    10    17    1
    24    10    32    1
    25    11    12    1
    26    11    33    1
    27    12    16    1
    28    12    17    1
    29    13    15    1
    30    13    20    1
    31    13    34    1
    32    14    19    1
    33    14    23    1
    34    14    27    1
    35    15    16    1
    36    15    22    1
    37    15    35    1
    38    16    25    1
    39    17    36    1
    40    18    24    1
    41    18    37    1
    42    19    38    1
    43    20    21    1
    44    20    39    1
    45    20    40    1
    46    21    22    1
    47    21    26    1
    48    21    41    1
    49    22    42    1
    50    23    24    1
    51    23    43    1
    52    23    44    1
    53    24    45    1
    54    24    46    1
    55    25    26    1
    56    25    47    1
    57    25    48    1
    58    26    49    1
    59    27    50    1
    60    27    51    1
    61    28    29    1
    62    28    53    1
    63    28    54    1
    64    29    57    1
    65    29    58    1
    66    29    59    1
    67    30    61    1
    68    30    62    1
    69    30    63    1
    70    31    64    1
    71    31    65    1
    72    31    66    1
