@<TRIPOS>MOLECULE
IMPHY005594
 76 79 0 0 0
SMALL
GASTEIGER

@<TRIPOS>ATOM
      1 O           2.8660    0.8100    0.0000 O.3     1  UNL1       -0.4819
      2 O           6.5856   -0.0749    0.0000 O.2     1  UNL1       -0.2738
      3 O           3.7226    0.2933    0.0000 O.2     1  UNL1       -0.2736
      4 O           3.7118   -2.6532    0.0000 O.2     1  UNL1       -0.2734
      5 N           5.4641    1.3100    0.0000 N.am    1  UNL1       -0.2717
      6 N           6.5468    2.5124    0.0000 N.3     1  UNL1       -0.2787
      7 N           5.4641   -0.6900    0.0000 N.am    1  UNL1       -0.3021
      8 N           4.5981   -3.1900    0.0000 N.am    1  UNL1       -0.2904
      9 C           7.0468    1.6464    0.0000 C.3     1  UNL1        0.0884
     10 C           4.5981    0.8100    0.0000 C.3     1  UNL1        0.1442
     11 C           5.5686    2.3045    0.0000 C.3     1  UNL1        0.0692
     12 C           6.3776    0.9033    0.0000 C.2     1  UNL1        0.2345
     13 C           8.0413    1.5419    0.0000 C.3     1  UNL1       -0.0288
     14 C           3.7320    1.3100    0.0000 C.3     1  UNL1        0.1521
     15 C           8.6291    2.3509    0.0000 C.3     1  UNL1       -0.0514
     16 C           4.5981   -0.1900    0.0000 C.2     1  UNL1        0.2382
     17 C           6.9535    3.4260    0.0000 C.3     1  UNL1       -0.0106
     18 C           3.7320    2.3100    0.0000 C.ar    1  UNL1       -0.0051
     19 C           9.6236    2.2464    0.0000 C.3     1  UNL1       -0.0559
     20 C           5.4641   -1.6900    0.0000 C.3     1  UNL1        0.1020
     21 C           6.3301   -2.1900    0.0000 C.3     1  UNL1       -0.0197
     22 C           4.5981    2.8100    0.0000 C.ar    1  UNL1       -0.0550
     23 C           2.8660    2.8100    0.0000 C.ar    1  UNL1       -0.0550
     24 C          10.2114    3.0554    0.0000 C.3     1  UNL1       -0.0653
     25 C           4.5981   -2.1900    0.0000 C.2     1  UNL1        0.2374
     26 C           2.8660   -0.1900    0.0000 C.ar    1  UNL1        0.1215
     27 C           7.1962   -1.6900    0.0000 C.3     1  UNL1       -0.0605
     28 C           6.3301   -3.1900    0.0000 C.3     1  UNL1       -0.0605
     29 C           4.5981    3.8100    0.0000 C.ar    1  UNL1       -0.0614
     30 C           2.8660    3.8100    0.0000 C.ar    1  UNL1       -0.0614
     31 C           3.7320    4.3100    0.0000 C.ar    1  UNL1       -0.0617
     32 C           3.7320   -0.6900    0.0000 C.ar    1  UNL1       -0.0194
     33 C           2.0000   -0.6900    0.0000 C.ar    1  UNL1       -0.0194
     34 C           2.8660   -2.1900    0.0000 C.ar    1  UNL1       -0.0236
     35 C           3.7320   -1.6900    0.0000 C.ar    1  UNL1       -0.0511
     36 C           2.0000   -1.6900    0.0000 C.ar    1  UNL1       -0.0511
     37 C           3.7320   -3.6900    0.0000 C.2     1  UNL1       -0.0031
     38 C           2.8660   -3.1900    0.0000 C.2     1  UNL1       -0.0407
     39 H           7.5097    2.3593    0.0000 H       1  UNL1        0.0559
     40 H           5.1350    0.5000    0.0000 H       1  UNL1        0.0638
     41 H           5.5038    2.9211    0.0000 H       1  UNL1        0.0635
     42 H           4.9486    2.3045    0.0000 H       1  UNL1        0.0635
     43 H           7.8704    0.9459    0.0000 H       1  UNL1        0.0285
     44 H           8.5986    1.2701    0.0000 H       1  UNL1        0.0285
     45 H           4.2690    1.6200    0.0000 H       1  UNL1        0.0808
     46 H           8.8000    2.9469    0.0000 H       1  UNL1        0.0266
     47 H           8.0718    2.6227    0.0000 H       1  UNL1        0.0266
     48 H           7.5199    3.1738    0.0000 H       1  UNL1        0.0391
     49 H           7.2057    3.9924    0.0000 H       1  UNL1        0.0391
     50 H           6.3871    3.6782    0.0000 H       1  UNL1        0.0391
     51 H           9.4527    1.6504    0.0000 H       1  UNL1        0.0263
     52 H          10.1809    1.9746    0.0000 H       1  UNL1        0.0263
     53 H           6.0010   -1.3800    0.0000 H       1  UNL1        0.0597
     54 H           6.0010   -0.3800    0.0000 H       1  UNL1        0.1495
     55 H           6.8671   -2.5000    0.0000 H       1  UNL1        0.0318
     56 H           5.1350    2.5000    0.0000 H       1  UNL1        0.0621
     57 H           2.3291    2.5000    0.0000 H       1  UNL1        0.0621
     58 H          10.7130    2.6910    0.0000 H       1  UNL1        0.0230
     59 H          10.5758    3.5570    0.0000 H       1  UNL1        0.0230
     60 H           9.7098    3.4198    0.0000 H       1  UNL1        0.0230
     61 H           7.5062   -2.2269    0.0000 H       1  UNL1        0.0233
     62 H           7.7331   -1.3800    0.0000 H       1  UNL1        0.0233
     63 H           6.8862   -1.1531    0.0000 H       1  UNL1        0.0233
     64 H           5.7101   -3.1900    0.0000 H       1  UNL1        0.0233
     65 H           6.3301   -3.8100    0.0000 H       1  UNL1        0.0233
     66 H           6.9501   -3.1900    0.0000 H       1  UNL1        0.0233
     67 H           5.1350    4.1200    0.0000 H       1  UNL1        0.0618
     68 H           2.3291    4.1200    0.0000 H       1  UNL1        0.0618
     69 H           3.7320    4.9300    0.0000 H       1  UNL1        0.0618
     70 H           5.1350   -3.5000    0.0000 H       1  UNL1        0.1543
     71 H           4.2690   -0.3800    0.0000 H       1  UNL1        0.0654
     72 H           1.4631   -0.3800    0.0000 H       1  UNL1        0.0654
     73 H           4.2690   -2.0000    0.0000 H       1  UNL1        0.0625
     74 H           1.4631   -2.0000    0.0000 H       1  UNL1        0.0625
     75 H           3.7320   -4.3100    0.0000 H       1  UNL1        0.0782
     76 H           2.3291   -3.5000    0.0000 H       1  UNL1        0.0636
@<TRIPOS>BOND
     1     1    14    1
     2     1    26    1
     3     2    12    2
     4     3    16    2
     5     4    25    2
     6    10     5    1
     7     5    11    1
     8     5    12   am
     9     6     9    1
    10     6    11    1
    11     6    17    1
    12     7    16   am
    13     7    20    1
    14     7    54    1
    15     8    25   am
    16     8    37    1
    17     8    70    1
    18     9    12    1
    19     9    13    1
    20     9    39    1
    21    10    14    1
    22    10    16    1
    23    10    40    1
    24    11    41    1
    25    11    42    1
    26    13    15    1
    27    13    43    1
    28    13    44    1
    29    14    18    1
    30    14    45    1
    31    15    19    1
    32    15    46    1
    33    15    47    1
    34    17    48    1
    35    17    49    1
    36    17    50    1
    37    18    22   ar
    38    18    23   ar
    39    19    24    1
    40    19    51    1
    41    19    52    1
    42    20    21    1
    43    20    25    1
    44    20    53    1
    45    21    27    1
    46    21    28    1
    47    21    55    1
    48    22    29   ar
    49    22    56    1
    50    23    30   ar
    51    23    57    1
    52    24    58    1
    53    24    59    1
    54    24    60    1
    55    26    32   ar
    56    26    33   ar
    57    27    61    1
    58    27    62    1
    59    27    63    1
    60    28    64    1
    61    28    65    1
    62    28    66    1
    63    29    31   ar
    64    29    67    1
    65    30    31   ar
    66    30    68    1
    67    31    69    1
    68    32    35   ar
    69    32    71    1
    70    33    36   ar
    71    33    72    1
    72    34    35   ar
    73    34    36   ar
    74    34    38    1
    75    35    73    1
    76    36    74    1
    77    37    38    2
    78    37    75    1
    79    38    76    1
