@<TRIPOS>MOLECULE
IMPHY016685
 36 35 0 0 0
SMALL
GASTEIGER

@<TRIPOS>ATOM
      1 O           7.1962    0.2500    0.0000 O.3     1  UNL1       -0.4642
      2 O           8.0622   -1.2500    0.0000 O.2     1  UNL1       -0.2502
      3 C           4.5981   -0.2500    0.0000 C.3     1  UNL1       -0.0500
      4 C           3.7320    0.2500    0.0000 C.3     1  UNL1       -0.0532
      5 C           5.4641    0.2500    0.0000 C.3     1  UNL1       -0.0185
      6 C           2.8660   -0.2500    0.0000 C.3     1  UNL1       -0.0559
      7 C           6.3301   -0.2500    0.0000 C.3     1  UNL1        0.0925
      8 C           2.0000    0.2500    0.0000 C.3     1  UNL1       -0.0653
      9 C           8.9282    0.2500    0.0000 C.3     1  UNL1        0.0717
     10 C           8.0622   -0.2500    0.0000 C.2     1  UNL1        0.3137
     11 C           8.9282    1.2500    0.0000 C.3     1  UNL1       -0.0488
     12 C           9.7942   -0.2500    0.0000 C.2     1  UNL1       -0.0749
     13 C          10.6603    0.2500    0.0000 C.2     1  UNL1       -0.0903
     14 C          11.5263   -0.2500    0.0000 C.3     1  UNL1       -0.0468
     15 H           4.1996   -0.7249    0.0000 H       1  UNL1        0.0266
     16 H           4.9966   -0.7249    0.0000 H       1  UNL1        0.0266
     17 H           4.1306    0.7249    0.0000 H       1  UNL1        0.0265
     18 H           3.3335    0.7249    0.0000 H       1  UNL1        0.0265
     19 H           5.8626    0.7249    0.0000 H       1  UNL1        0.0298
     20 H           5.0656    0.7249    0.0000 H       1  UNL1        0.0298
     21 H           2.4675   -0.7249    0.0000 H       1  UNL1        0.0263
     22 H           3.2646   -0.7249    0.0000 H       1  UNL1        0.0263
     23 H           5.9316   -0.7249    0.0000 H       1  UNL1        0.0697
     24 H           6.7287   -0.7249    0.0000 H       1  UNL1        0.0697
     25 H           9.4651    0.5600    0.0000 H       1  UNL1        0.0453
     26 H           2.3100    0.7869    0.0000 H       1  UNL1        0.0230
     27 H           1.4631    0.5600    0.0000 H       1  UNL1        0.0230
     28 H           1.6900   -0.2869    0.0000 H       1  UNL1        0.0230
     29 H           9.5482    1.2500    0.0000 H       1  UNL1        0.0241
     30 H           8.9282    1.8700    0.0000 H       1  UNL1        0.0241
     31 H           8.3082    1.2500    0.0000 H       1  UNL1        0.0241
     32 H           9.7942   -0.8700    0.0000 H       1  UNL1        0.0577
     33 H          10.6603    0.8700    0.0000 H       1  UNL1        0.0566
     34 H          11.2163   -0.7869    0.0000 H       1  UNL1        0.0272
     35 H          12.0632   -0.5600    0.0000 H       1  UNL1        0.0272
     36 H          11.8363    0.2869    0.0000 H       1  UNL1        0.0272
@<TRIPOS>BOND
     1     1     7    1
     2     1    10    1
     3     2    10    2
     4     3     4    1
     5     3     5    1
     6     3    15    1
     7     3    16    1
     8     4     6    1
     9     4    17    1
    10     4    18    1
    11     5     7    1
    12     5    19    1
    13     5    20    1
    14     6     8    1
    15     6    21    1
    16     6    22    1
    17     7    23    1
    18     7    24    1
    19     8    26    1
    20     8    27    1
    21     8    28    1
    22     9    10    1
    23     9    11    1
    24     9    12    1
    25     9    25    1
    26    11    29    1
    27    11    30    1
    28    11    31    1
    29    12    13    2
    30    12    32    1
    31    13    14    1
    32    13    33    1
    33    14    34    1
    34    14    35    1
    35    14    36    1
