@<TRIPOS>MOLECULE
IMPHY015616
 35 36 0 0 0
SMALL
GASTEIGER

@<TRIPOS>ATOM
      1 O           6.3580   -1.0347    0.0000 O.3     1  UNL1       -0.4858
      2 O           2.8660   -1.0000    0.0000 O.3     1  UNL1       -0.4943
      3 O           2.0000    0.5000    0.0000 O.2     1  UNL1       -0.2922
      4 C           7.2641   -0.5208    0.0000 C.3     1  UNL1        0.1054
      5 C           7.2641    0.5208    0.0000 C.3     1  UNL1       -0.0093
      6 C           6.3580    1.0347    0.0000 C.3     1  UNL1       -0.0206
      7 C           5.4641    0.5000    0.0000 C.ar    1  UNL1       -0.0047
      8 C           5.4641   -0.5000    0.0000 C.ar    1  UNL1        0.1279
      9 C           8.2641   -0.5247    0.0000 C.3     1  UNL1       -0.0252
     10 C           7.7608   -1.3888    0.0000 C.3     1  UNL1       -0.0252
     11 C           4.5981    1.0000    0.0000 C.ar    1  UNL1       -0.0411
     12 C           4.5981   -1.0000    0.0000 C.ar    1  UNL1        0.0228
     13 C           3.7320    0.5000    0.0000 C.ar    1  UNL1        0.0592
     14 C           3.7320   -0.5000    0.0000 C.ar    1  UNL1        0.1340
     15 C           2.8660    1.0000    0.0000 C.2     1  UNL1        0.1636
     16 C           2.8660    2.0000    0.0000 C.3     1  UNL1       -0.0013
     17 C           2.8660   -2.0000    0.0000 C.3     1  UNL1        0.0788
     18 H           7.8750    0.4147    0.0000 H       1  UNL1        0.0307
     19 H           7.4732    1.1045    0.0000 H       1  UNL1        0.0307
     20 H           6.7517    1.5137    0.0000 H       1  UNL1        0.0316
     21 H           5.9534    1.5044    0.0000 H       1  UNL1        0.0316
     22 H           8.2617   -1.1447    0.0000 H       1  UNL1        0.0268
     23 H           8.8841   -0.5271    0.0000 H       1  UNL1        0.0268
     24 H           8.2665    0.0953    0.0000 H       1  UNL1        0.0268
     25 H           7.2226   -1.6967    0.0000 H       1  UNL1        0.0268
     26 H           8.0687   -1.9269    0.0000 H       1  UNL1        0.0268
     27 H           8.2989   -1.0808    0.0000 H       1  UNL1        0.0268
     28 H           4.5981    1.6200    0.0000 H       1  UNL1        0.0630
     29 H           4.5981   -1.6200    0.0000 H       1  UNL1        0.0691
     30 H           3.4860    2.0000    0.0000 H       1  UNL1        0.0309
     31 H           2.8660    2.6200    0.0000 H       1  UNL1        0.0309
     32 H           2.2460    2.0000    0.0000 H       1  UNL1        0.0309
     33 H           2.2460   -2.0000    0.0000 H       1  UNL1        0.0660
     34 H           2.8660   -2.6200    0.0000 H       1  UNL1        0.0660
     35 H           3.4860   -2.0000    0.0000 H       1  UNL1        0.0660
@<TRIPOS>BOND
     1     1     4    1
     2     1     8    1
     3     2    14    1
     4     2    17    1
     5     3    15    2
     6     4     5    1
     7     4     9    1
     8     4    10    1
     9     5     6    1
    10     5    18    1
    11     5    19    1
    12     6     7    1
    13     6    20    1
    14     6    21    1
    15     7     8   ar
    16     7    11   ar
    17     8    12   ar
    18     9    22    1
    19     9    23    1
    20     9    24    1
    21    10    25    1
    22    10    26    1
    23    10    27    1
    24    11    13   ar
    25    11    28    1
    26    12    14   ar
    27    12    29    1
    28    13    14   ar
    29    13    15    1
    30    15    16    1
    31    16    30    1
    32    16    31    1
    33    16    32    1
    34    17    33    1
    35    17    34    1
    36    17    35    1
