@<TRIPOS>MOLECULE
IMPHY006434
 72 76 0 0 0
SMALL
GASTEIGER

@<TRIPOS>ATOM
      1 O           9.0465    1.7694    0.0000 O.2     1  UNL1       -0.4216
      2 O           5.5545    1.8040    0.0000 O.3     1  UNL1       -0.4946
      3 O           7.2865    4.8040    0.0000 O.3     1  UNL1       -0.4943
      4 O           3.7415   -2.2791    0.0000 O.2     1  UNL1       -0.4213
      5 O           7.4053   -2.1759    0.0000 O.3     1  UNL1       -0.4943
      6 O          10.8166    1.7799    0.0000 O.2     1  UNL1       -0.2452
      7 O           6.0019   -4.9620    0.0000 O.3     1  UNL1       -0.4943
      8 O           2.0000   -2.5967    0.0000 O.2     1  UNL1       -0.2452
      9 C           6.4205    0.3040    0.0000 C.3     1  UNL1       -0.0030
     10 C           7.2865    0.8040    0.0000 C.3     1  UNL1        0.0182
     11 C           6.4205   -0.6960    0.0000 C.3     1  UNL1       -0.0396
     12 C           7.2865   -1.1960    0.0000 C.3     1  UNL1       -0.0312
     13 C           8.1525    0.3040    0.0000 C.2     1  UNL1       -0.0766
     14 C           5.9205    1.1701    0.0000 C.3     1  UNL1       -0.0552
     15 C           8.1525   -0.6960    0.0000 C.2     1  UNL1       -0.0759
     16 C           7.2865    1.8040    0.0000 C.ar    1  UNL1        0.0450
     17 C           5.4807   -0.0378    0.0000 C.2     1  UNL1       -0.0764
     18 C           8.1525    2.3040    0.0000 C.ar    1  UNL1        0.1498
     19 C           6.4205    2.3040    0.0000 C.ar    1  UNL1        0.1309
     20 C           9.0186   -1.1960    0.0000 C.3     1  UNL1       -0.0438
     21 C           5.3071   -1.0227    0.0000 C.2     1  UNL1       -0.0509
     22 C           8.1525    3.3040    0.0000 C.ar    1  UNL1        0.0597
     23 C           6.4205    3.3040    0.0000 C.ar    1  UNL1        0.0229
     24 C           7.2865    3.8040    0.0000 C.ar    1  UNL1        0.1342
     25 C           5.4808   -2.0077    0.0000 C.ar    1  UNL1        0.0595
     26 C           9.0465    3.8387    0.0000 C.ar    1  UNL1       -0.0408
     27 C           4.7150   -2.6505    0.0000 C.ar    1  UNL1        0.1531
     28 C           6.4206   -2.3496    0.0000 C.ar    1  UNL1        0.1342
     29 C           9.9526    2.2832    0.0000 C.ar    1  UNL1        0.3372
     30 C           9.9526    3.3249    0.0000 C.ar    1  UNL1        0.0237
     31 C           4.8886   -3.6353    0.0000 C.ar    1  UNL1        0.0600
     32 C           4.6884    2.3040    0.0000 C.3     1  UNL1        0.0788
     33 C           6.5942   -3.3344    0.0000 C.ar    1  UNL1        0.0232
     34 C           5.8282   -3.9772    0.0000 C.ar    1  UNL1        0.1342
     35 C           6.4205    5.3040    0.0000 C.3     1  UNL1        0.0788
     36 C           4.1012   -4.3171    0.0000 C.ar    1  UNL1       -0.0408
     37 C           2.9384   -2.9425    0.0000 C.ar    1  UNL1        0.3372
     38 C           3.1194   -3.9684    0.0000 C.ar    1  UNL1        0.0237
     39 C           8.3901   -2.3496    0.0000 C.3     1  UNL1        0.0788
     40 C           6.9415   -5.3040    0.0000 C.3     1  UNL1        0.0788
     41 H           7.8234    1.1140    0.0000 H       1  UNL1        0.0402
     42 H           5.8099   -0.5883    0.0000 H       1  UNL1        0.0277
     43 H           6.2084   -1.2786    0.0000 H       1  UNL1        0.0277
     44 H           6.8880   -1.6709    0.0000 H       1  UNL1        0.0310
     45 H           7.6850   -1.6709    0.0000 H       1  UNL1        0.0310
     46 H           8.6895    0.6140    0.0000 H       1  UNL1        0.0578
     47 H           6.4574    1.4801    0.0000 H       1  UNL1        0.0238
     48 H           5.6105    1.7070    0.0000 H       1  UNL1        0.0238
     49 H           5.3835    0.8601    0.0000 H       1  UNL1        0.0238
     50 H           5.0058    0.3606    0.0000 H       1  UNL1        0.0578
     51 H           8.7086   -1.7329    0.0000 H       1  UNL1        0.0274
     52 H           9.5555   -1.5060    0.0000 H       1  UNL1        0.0274
     53 H           9.3286   -0.6590    0.0000 H       1  UNL1        0.0274
     54 H           4.7244   -1.2347    0.0000 H       1  UNL1        0.0623
     55 H           5.8835    3.6140    0.0000 H       1  UNL1        0.0691
     56 H           9.0393    4.4587    0.0000 H       1  UNL1        0.0628
     57 H          10.4883    3.6369    0.0000 H       1  UNL1        0.0689
     58 H           4.9984    2.8410    0.0000 H       1  UNL1        0.0660
     59 H           4.1515    2.6140    0.0000 H       1  UNL1        0.0660
     60 H           4.3784    1.7671    0.0000 H       1  UNL1        0.0660
     61 H           7.1768   -3.5465    0.0000 H       1  UNL1        0.0691
     62 H           4.2159   -4.9264    0.0000 H       1  UNL1        0.0628
     63 H           6.7305    5.8410    0.0000 H       1  UNL1        0.0660
     64 H           5.8835    5.6140    0.0000 H       1  UNL1        0.0660
     65 H           6.1105    4.7671    0.0000 H       1  UNL1        0.0660
     66 H           2.6461   -4.3688    0.0000 H       1  UNL1        0.0689
     67 H           8.2824   -2.9602    0.0000 H       1  UNL1        0.0660
     68 H           9.0007   -2.4572    0.0000 H       1  UNL1        0.0660
     69 H           8.4978   -1.7390    0.0000 H       1  UNL1        0.0660
     70 H           6.7294   -5.8867    0.0000 H       1  UNL1        0.0660
     71 H           7.5241   -5.5161    0.0000 H       1  UNL1        0.0660
     72 H           7.1535   -4.7214    0.0000 H       1  UNL1        0.0660
@<TRIPOS>BOND
     1     1    18   ar
     2     1    29   ar
     3     2    19    1
     4     2    32    1
     5     3    24    1
     6     3    35    1
     7     4    27   ar
     8     4    37   ar
     9     5    28    1
    10     5    39    1
    11     6    29    2
    12     7    34    1
    13     7    40    1
    14     8    37    2
    15     9    10    1
    16     9    11    1
    17     9    14    1
    18     9    17    1
    19    10    13    1
    20    10    16    1
    21    10    41    1
    22    11    12    1
    23    11    42    1
    24    11    43    1
    25    12    15    1
    26    12    44    1
    27    12    45    1
    28    13    15    2
    29    13    46    1
    30    14    47    1
    31    14    48    1
    32    14    49    1
    33    15    20    1
    34    16    18   ar
    35    16    19   ar
    36    17    21    2
    37    17    50    1
    38    18    22   ar
    39    19    23   ar
    40    20    51    1
    41    20    52    1
    42    20    53    1
    43    21    25    1
    44    21    54    1
    45    22    24   ar
    46    22    26   ar
    47    23    24   ar
    48    23    55    1
    49    25    27   ar
    50    25    28   ar
    51    26    30   ar
    52    26    56    1
    53    27    31   ar
    54    28    33   ar
    55    29    30   ar
    56    30    57    1
    57    31    34   ar
    58    31    36   ar
    59    32    58    1
    60    32    59    1
    61    32    60    1
    62    33    34   ar
    63    33    61    1
    64    35    63    1
    65    35    64    1
    66    35    65    1
    67    36    38   ar
    68    36    62    1
    69    37    38   ar
    70    38    66    1
    71    39    67    1
    72    39    68    1
    73    39    69    1
    74    40    70    1
    75    40    71    1
    76    40    72    1
