@<TRIPOS>MOLECULE
IMPHY003314
 38 39 0 0 0
SMALL
GASTEIGER

@<TRIPOS>ATOM
      1 O           6.3580   -0.2847    0.0000 O.2     1  UNL1       -0.4216
      2 O           2.8660   -0.2500    0.0000 O.3     1  UNL1       -0.4946
      3 O           4.5981    2.7500    0.0000 O.3     1  UNL1       -0.4943
      4 O           8.1282   -0.2742    0.0000 O.2     1  UNL1       -0.2452
      5 C           4.5981   -0.2500    0.0000 C.ar    1  UNL1        0.0411
      6 C           5.4641    0.2500    0.0000 C.ar    1  UNL1        0.1495
      7 C           4.5981   -1.2500    0.0000 C.3     1  UNL1       -0.0023
      8 C           5.4641    1.2500    0.0000 C.ar    1  UNL1        0.0597
      9 C           3.7320    0.2500    0.0000 C.ar    1  UNL1        0.1306
     10 C           4.5981    1.7500    0.0000 C.ar    1  UNL1        0.1342
     11 C           3.7320    1.2500    0.0000 C.ar    1  UNL1        0.0229
     12 C           3.7320   -1.7500    0.0000 C.2     1  UNL1       -0.0807
     13 C           6.3580    1.7847    0.0000 C.ar    1  UNL1       -0.0408
     14 C           3.7320   -2.7500    0.0000 C.2     1  UNL1       -0.0793
     15 C           7.2641    1.2708    0.0000 C.ar    1  UNL1        0.0237
     16 C           7.2641    0.2292    0.0000 C.ar    1  UNL1        0.3372
     17 C           2.8660   -3.2500    0.0000 C.3     1  UNL1       -0.0440
     18 C           4.5981   -3.2500    0.0000 C.3     1  UNL1       -0.0440
     19 C           2.0000    0.2500    0.0000 C.3     1  UNL1        0.0788
     20 C           3.7320    3.2500    0.0000 C.3     1  UNL1        0.0788
     21 H           4.8101   -1.8326    0.0000 H       1  UNL1        0.0358
     22 H           5.2087   -1.1423    0.0000 H       1  UNL1        0.0358
     23 H           3.1951    1.5600    0.0000 H       1  UNL1        0.0691
     24 H           3.1951   -1.4400    0.0000 H       1  UNL1        0.0575
     25 H           6.3509    2.4046    0.0000 H       1  UNL1        0.0628
     26 H           7.7998    1.5829    0.0000 H       1  UNL1        0.0689
     27 H           4.2881   -3.7869    0.0000 H       1  UNL1        0.0274
     28 H           5.1350   -3.5600    0.0000 H       1  UNL1        0.0274
     29 H           4.9081   -2.7131    0.0000 H       1  UNL1        0.0274
     30 H           2.5560   -2.7131    0.0000 H       1  UNL1        0.0274
     31 H           2.3291   -3.5600    0.0000 H       1  UNL1        0.0274
     32 H           3.1760   -3.7869    0.0000 H       1  UNL1        0.0274
     33 H           2.3100    0.7869    0.0000 H       1  UNL1        0.0660
     34 H           1.4631    0.5600    0.0000 H       1  UNL1        0.0660
     35 H           1.6900   -0.2869    0.0000 H       1  UNL1        0.0660
     36 H           4.0420    3.7869    0.0000 H       1  UNL1        0.0660
     37 H           3.1951    3.5600    0.0000 H       1  UNL1        0.0660
     38 H           3.4220    2.7131    0.0000 H       1  UNL1        0.0660
@<TRIPOS>BOND
     1     1     6   ar
     2     1    16   ar
     3     2     9    1
     4     2    19    1
     5     3    10    1
     6     3    20    1
     7     4    16    2
     8     5     6   ar
     9     5     7    1
    10     5     9   ar
    11     6     8   ar
    12     7    12    1
    13     7    21    1
    14     7    22    1
    15     8    10   ar
    16     8    13   ar
    17     9    11   ar
    18    10    11   ar
    19    11    23    1
    20    12    14    2
    21    12    24    1
    22    13    15   ar
    23    13    25    1
    24    14    17    1
    25    14    18    1
    26    15    16   ar
    27    15    26    1
    28    17    30    1
    29    17    31    1
    30    17    32    1
    31    18    27    1
    32    18    28    1
    33    18    29    1
    34    19    33    1
    35    19    34    1
    36    19    35    1
    37    20    36    1
    38    20    37    1
    39    20    38    1
