@<TRIPOS>MOLECULE
IMPHY001350
 64 66 0 0 0
SMALL
GASTEIGER

@<TRIPOS>ATOM
      1 O           6.5862   -2.5674    0.0000 O.3     1  UNL1       -0.3509
      2 O           8.3074   -3.0286    0.0000 O.3     1  UNL1       -0.3667
      3 O           6.8028    2.1350    0.0000 O.3     1  UNL1       -0.4913
      4 O          10.2669    2.1350    0.0000 O.3     1  UNL1       -0.4913
      5 O           3.1590   -0.7003    0.0000 O.3     1  UNL1       -0.4913
      6 O           4.2294    2.5943    0.0000 O.3     1  UNL1       -0.4913
      7 O           8.5348    3.1350    0.0000 O.3     1  UNL1       -0.4885
      8 O           2.7431    1.2560    0.0000 O.3     1  UNL1       -0.4885
      9 C           7.6688   -1.3650    0.0000 C.3     1  UNL1        0.0191
     10 C           6.7553   -0.9582    0.0000 C.3     1  UNL1       -0.0058
     11 C           7.5643   -2.3595    0.0000 C.3     1  UNL1        0.1596
     12 C           6.0862   -1.7014    0.0000 C.3     1  UNL1        0.0542
     13 C           8.5348   -0.8649    0.0000 C.3     1  UNL1       -0.0197
     14 C           6.5474    0.0199    0.0000 C.3     1  UNL1       -0.0221
     15 C           8.5348    0.1351    0.0000 C.ar    1  UNL1       -0.0398
     16 C           5.5963    0.3290    0.0000 C.ar    1  UNL1       -0.0399
     17 C           9.4009    0.6351    0.0000 C.ar    1  UNL1       -0.0129
     18 C           7.6688    0.6351    0.0000 C.ar    1  UNL1       -0.0129
     19 C           5.3884    1.3071    0.0000 C.ar    1  UNL1       -0.0129
     20 C           4.8532   -0.3402    0.0000 C.ar    1  UNL1       -0.0129
     21 C           7.6688    1.6350    0.0000 C.ar    1  UNL1        0.1654
     22 C           9.4009    1.6350    0.0000 C.ar    1  UNL1        0.1654
     23 C           3.9021   -0.0312    0.0000 C.ar    1  UNL1        0.1654
     24 C           4.4374    1.6161    0.0000 C.ar    1  UNL1        0.1654
     25 C           8.5348    2.1350    0.0000 C.ar    1  UNL1        0.2035
     26 C           3.6942    0.9470    0.0000 C.ar    1  UNL1        0.2035
     27 C           5.9368    1.6350    0.0000 C.3     1  UNL1        0.0790
     28 C          11.1329    1.6350    0.0000 C.3     1  UNL1        0.0790
     29 C           3.3669   -1.6784    0.0000 C.3     1  UNL1        0.0790
     30 C           3.2784    2.9033    0.0000 C.3     1  UNL1        0.0790
     31 C           9.4009    3.6350    0.0000 C.3     1  UNL1        0.0791
     32 C           2.0000    0.5869    0.0000 C.3     1  UNL1        0.0791
     33 H           8.1888   -1.7026    0.0000 H       1  UNL1        0.0356
     34 H           6.1564   -0.7977    0.0000 H       1  UNL1        0.0330
     35 H           7.4038   -2.9583    0.0000 H       1  UNL1        0.0910
     36 H           5.6713   -1.2406    0.0000 H       1  UNL1        0.0564
     37 H           5.5846   -2.0658    0.0000 H       1  UNL1        0.0564
     38 H           8.7469   -1.4476    0.0000 H       1  UNL1        0.0318
     39 H           9.1454   -0.7573    0.0000 H       1  UNL1        0.0318
     40 H           7.1670    0.0416    0.0000 H       1  UNL1        0.0317
     41 H           6.6337    0.6339    0.0000 H       1  UNL1        0.0317
     42 H           8.1785   -3.6350    0.0000 H       1  UNL1        0.2125
     43 H           9.9378    0.3251    0.0000 H       1  UNL1        0.0658
     44 H           7.1319    0.3251    0.0000 H       1  UNL1        0.0658
     45 H           5.8492    1.7220    0.0000 H       1  UNL1        0.0658
     46 H           4.9821   -0.9466    0.0000 H       1  UNL1        0.0658
     47 H           5.6268    2.1720    0.0000 H       1  UNL1        0.0660
     48 H           5.3998    1.3250    0.0000 H       1  UNL1        0.0660
     49 H           6.2468    1.0981    0.0000 H       1  UNL1        0.0660
     50 H          10.8229    1.0981    0.0000 H       1  UNL1        0.0660
     51 H          11.6699    1.3250    0.0000 H       1  UNL1        0.0660
     52 H          11.4429    2.1720    0.0000 H       1  UNL1        0.0660
     53 H           2.7604   -1.8073    0.0000 H       1  UNL1        0.0660
     54 H           3.4958   -2.2849    0.0000 H       1  UNL1        0.0660
     55 H           3.9733   -1.5495    0.0000 H       1  UNL1        0.0660
     56 H           3.4700    3.4929    0.0000 H       1  UNL1        0.0660
     57 H           2.6887    3.0949    0.0000 H       1  UNL1        0.0660
     58 H           3.0868    2.3136    0.0000 H       1  UNL1        0.0660
     59 H           9.7109    3.0981    0.0000 H       1  UNL1        0.0660
     60 H           9.9378    3.9450    0.0000 H       1  UNL1        0.0660
     61 H           9.0909    4.1720    0.0000 H       1  UNL1        0.0660
     62 H           1.5851    1.0476    0.0000 H       1  UNL1        0.0660
     63 H           1.5392    0.1720    0.0000 H       1  UNL1        0.0660
     64 H           2.4149    0.1261    0.0000 H       1  UNL1        0.0660
@<TRIPOS>BOND
     1     1    11    1
     2     1    12    1
     3     2    11    1
     4     2    42    1
     5     3    21    1
     6     3    27    1
     7     4    22    1
     8     4    28    1
     9     5    23    1
    10     5    29    1
    11     6    24    1
    12     6    30    1
    13     7    25    1
    14     7    31    1
    15     8    26    1
    16     8    32    1
    17     9    10    1
    18     9    11    1
    19     9    13    1
    20     9    33    1
    21    10    12    1
    22    10    14    1
    23    10    34    1
    24    11    35    1
    25    12    36    1
    26    12    37    1
    27    13    15    1
    28    13    38    1
    29    13    39    1
    30    14    16    1
    31    14    40    1
    32    14    41    1
    33    15    17   ar
    34    15    18   ar
    35    16    19   ar
    36    16    20   ar
    37    17    22   ar
    38    17    43    1
    39    18    21   ar
    40    18    44    1
    41    19    24   ar
    42    19    45    1
    43    20    23   ar
    44    20    46    1
    45    21    25   ar
    46    22    25   ar
    47    23    26   ar
    48    24    26   ar
    49    27    47    1
    50    27    48    1
    51    27    49    1
    52    28    50    1
    53    28    51    1
    54    28    52    1
    55    29    53    1
    56    29    54    1
    57    29    55    1
    58    30    56    1
    59    30    57    1
    60    30    58    1
    61    31    59    1
    62    31    60    1
    63    31    61    1
    64    32    62    1
    65    32    63    1
    66    32    64    1
