@<TRIPOS>MOLECULE
IMPHY014246
 51 51 0 0 0
SMALL
GASTEIGER

@<TRIPOS>ATOM
      1 O          16.4860    3.7141    0.0000 O.3     1  UNL1       -0.4806
      2 O          16.4860    1.9820    0.0000 O.2     1  UNL1       -0.2510
      3 C           9.6200   -0.2500    0.0000 C.2     1  UNL1       -0.0660
      4 C          10.4860    0.2500    0.0000 C.2     1  UNL1       -0.0660
      5 C           9.6200    0.7500    0.0000 C.3     1  UNL1       -0.0100
      6 C           9.1200   -1.1160    0.0000 C.3     1  UNL1       -0.0312
      7 C          11.4860    0.2500    0.0000 C.3     1  UNL1       -0.0312
      8 C           8.1200   -1.1160    0.0000 C.3     1  UNL1       -0.0493
      9 C          11.9860    1.1160    0.0000 C.3     1  UNL1       -0.0493
     10 C           7.6200   -1.9820    0.0000 C.3     1  UNL1       -0.0528
     11 C          12.9860    1.1160    0.0000 C.3     1  UNL1       -0.0528
     12 C           6.6200   -1.9820    0.0000 C.3     1  UNL1       -0.0530
     13 C          13.4860    1.9820    0.0000 C.3     1  UNL1       -0.0525
     14 C           6.1200   -2.8481    0.0000 C.3     1  UNL1       -0.0522
     15 C          14.4860    1.9820    0.0000 C.3     1  UNL1       -0.0430
     16 C           5.1200   -2.8481    0.0000 C.3     1  UNL1       -0.0422
     17 C          14.9860    2.8481    0.0000 C.3     1  UNL1        0.0448
     18 C           4.6200   -3.7141    0.0000 C.3     1  UNL1        0.0089
     19 C          15.9860    2.8481    0.0000 C.2     1  UNL1        0.3047
     20 C           3.6200   -3.7141    0.0000 C.1     1  UNL1       -0.1056
     21 C           2.6200   -3.7141    0.0000 C.1     1  UNL1       -0.1192
     22 H           9.8320    1.3326    0.0000 H       1  UNL1        0.0355
     23 H           9.0094    0.8577    0.0000 H       1  UNL1        0.0355
     24 H           9.0123   -1.7266    0.0000 H       1  UNL1        0.0310
     25 H           9.7026   -1.3281    0.0000 H       1  UNL1        0.0310
     26 H          11.3784   -0.3606    0.0000 H       1  UNL1        0.0310
     27 H          12.0686    0.0379    0.0000 H       1  UNL1        0.0310
     28 H           8.2277   -0.5054    0.0000 H       1  UNL1        0.0268
     29 H           7.5374   -0.9040    0.0000 H       1  UNL1        0.0268
     30 H          12.0937    1.7266    0.0000 H       1  UNL1        0.0268
     31 H          11.4034    1.3281    0.0000 H       1  UNL1        0.0268
     32 H           7.5123   -2.5926    0.0000 H       1  UNL1        0.0265
     33 H           8.2026   -2.1941    0.0000 H       1  UNL1        0.0265
     34 H          12.8784    0.5054    0.0000 H       1  UNL1        0.0265
     35 H          13.5686    0.9040    0.0000 H       1  UNL1        0.0265
     36 H           6.7277   -1.3715    0.0000 H       1  UNL1        0.0265
     37 H           6.0374   -1.7700    0.0000 H       1  UNL1        0.0265
     38 H          13.5937    2.5926    0.0000 H       1  UNL1        0.0265
     39 H          12.9034    2.1941    0.0000 H       1  UNL1        0.0265
     40 H           6.0123   -3.4587    0.0000 H       1  UNL1        0.0266
     41 H           6.7026   -3.0601    0.0000 H       1  UNL1        0.0266
     42 H          14.3784    1.3715    0.0000 H       1  UNL1        0.0270
     43 H          15.0686    1.7700    0.0000 H       1  UNL1        0.0270
     44 H           5.2277   -2.2375    0.0000 H       1  UNL1        0.0274
     45 H           4.5374   -2.6360    0.0000 H       1  UNL1        0.0274
     46 H          15.0937    3.4587    0.0000 H       1  UNL1        0.0377
     47 H          14.4034    3.0601    0.0000 H       1  UNL1        0.0377
     48 H           4.5123   -4.3247    0.0000 H       1  UNL1        0.0397
     49 H           5.2026   -3.9262    0.0000 H       1  UNL1        0.0397
     50 H          17.1060    3.7141    0.0000 H       1  UNL1        0.2951
     51 H           2.0000   -3.7141    0.0000 H       1  UNL1        0.1228
@<TRIPOS>BOND
     1     1    19    1
     2     1    50    1
     3     2    19    2
     4     3     4    2
     5     3     5    1
     6     3     6    1
     7     4     5    1
     8     4     7    1
     9     5    22    1
    10     5    23    1
    11     6     8    1
    12     6    24    1
    13     6    25    1
    14     7     9    1
    15     7    26    1
    16     7    27    1
    17     8    10    1
    18     8    28    1
    19     8    29    1
    20     9    11    1
    21     9    30    1
    22     9    31    1
    23    10    12    1
    24    10    32    1
    25    10    33    1
    26    11    13    1
    27    11    34    1
    28    11    35    1
    29    12    14    1
    30    12    36    1
    31    12    37    1
    32    13    15    1
    33    13    38    1
    34    13    39    1
    35    14    16    1
    36    14    40    1
    37    14    41    1
    38    15    17    1
    39    15    42    1
    40    15    43    1
    41    16    18    1
    42    16    44    1
    43    16    45    1
    44    17    19    1
    45    17    46    1
    46    17    47    1
    47    18    20    1
    48    18    48    1
    49    18    49    1
    50    20    21    3
    51    21    51    1
