@<TRIPOS>MOLECULE
IMPHY008003
 92 98 0 0 0
SMALL
GASTEIGER

@<TRIPOS>ATOM
      1 O           2.2788    1.5038    0.0000 O.3     1  UNL1       -0.3651
      2 O           4.5659    0.7607    0.0000 O.3     1  UNL1       -0.4546
      3 O           4.1756   -1.4318    0.0000 O.3     1  UNL1       -0.4569
      4 O           6.5528    2.4873    0.0000 O.3     1  UNL1       -0.4534
      5 O           6.0348    1.6785    0.0000 O.2     1  UNL1       -0.2449
      6 O           2.7743   -2.4499    0.0000 O.2     1  UNL1       -0.2450
      7 O           6.1507    4.1720    0.0000 O.2     1  UNL1       -0.2449
      8 C           3.2080    3.2139    0.0000 C.3     1  UNL1       -0.0055
      9 C           3.4670    4.1777    0.0000 C.3     1  UNL1       -0.0261
     10 C           4.1575    3.4571    0.0000 C.3     1  UNL1       -0.0262
     11 C           2.5878    2.4549    0.0000 C.3     1  UNL1        0.0692
     12 C           3.0878    0.9160    0.0000 C.3     1  UNL1        0.1168
     13 C           3.5878    2.4549    0.0000 C.3     1  UNL1        0.0227
     14 C           3.8968    1.5038    0.0000 C.3     1  UNL1        0.1377
     15 C           5.0663    3.0898    0.0000 C.3     1  UNL1       -0.0080
     16 C           3.8968    0.3283    0.0000 C.3     1  UNL1        0.0474
     17 C           4.1819    4.8769    0.0000 C.3     1  UNL1       -0.0592
     18 C           2.5040    4.4471    0.0000 C.3     1  UNL1       -0.0592
     19 C           2.2788    0.3283    0.0000 C.3     1  UNL1       -0.0136
     20 C           3.5878   -0.6228    0.0000 C.3     1  UNL1        0.1150
     21 C           2.5878   -0.6228    0.0000 C.3     1  UNL1       -0.0032
     22 C           5.5801    2.2551    0.0000 C.3     1  UNL1        0.1245
     23 C           4.5823    2.3504    0.0000 C.3     1  UNL1       -0.0566
     24 C           4.8538    0.5401    0.0000 C.2     1  UNL1       -0.0722
     25 C           5.4987    1.2783    0.0000 C.2     1  UNL1       -0.0361
     26 C           2.0000   -1.4318    0.0000 C.3     1  UNL1       -0.0589
     27 C           6.4196    0.8883    0.0000 C.3     1  UNL1       -0.0403
     28 C           5.5653    0.7956    0.0000 C.2     1  UNL1        0.3395
     29 C           3.7688   -2.3454    0.0000 C.2     1  UNL1        0.3395
     30 C           6.8381    3.4457    0.0000 C.2     1  UNL1        0.3398
     31 C           6.0952   -0.0525    0.0000 C.ar    1  UNL1        0.0590
     32 C           4.3566   -3.1544    0.0000 C.ar    1  UNL1        0.0590
     33 C           7.8107    3.6779    0.0000 C.ar    1  UNL1        0.0590
     34 C           5.6258   -0.9354    0.0000 C.ar    1  UNL1       -0.0478
     35 C           7.0946   -0.0176    0.0000 C.ar    1  UNL1       -0.0478
     36 C           3.9499   -4.0679    0.0000 C.ar    1  UNL1       -0.0478
     37 C           5.3511   -3.0498    0.0000 C.ar    1  UNL1       -0.0478
     38 C           8.0960    4.6363    0.0000 C.ar    1  UNL1       -0.0478
     39 C           8.4981    2.9516    0.0000 C.ar    1  UNL1       -0.0478
     40 C           6.1557   -1.7835    0.0000 C.ar    1  UNL1       -0.0610
     41 C           7.6246   -0.8656    0.0000 C.ar    1  UNL1       -0.0610
     42 C           7.1551   -1.7486    0.0000 C.ar    1  UNL1       -0.0617
     43 C           4.5377   -4.8769    0.0000 C.ar    1  UNL1       -0.0610
     44 C           5.9389   -3.8589    0.0000 C.ar    1  UNL1       -0.0610
     45 C           9.0687    4.8685    0.0000 C.ar    1  UNL1       -0.0610
     46 C           9.4708    3.1838    0.0000 C.ar    1  UNL1       -0.0610
     47 C           5.5322   -4.7724    0.0000 C.ar    1  UNL1       -0.0617
     48 C           9.7561    4.1422    0.0000 C.ar    1  UNL1       -0.0617
     49 H           2.7506    3.9303    0.0000 H       1  UNL1        0.0334
     50 H           4.6343    4.1609    0.0000 H       1  UNL1        0.0311
     51 H           1.8417    2.8621    0.0000 H       1  UNL1        0.0603
     52 H           3.6202    3.0740    0.0000 H       1  UNL1        0.0360
     53 H           4.4337    1.8138    0.0000 H       1  UNL1        0.0767
     54 H           5.6686    3.2371    0.0000 H       1  UNL1        0.0307
     55 H           5.1110    3.7082    0.0000 H       1  UNL1        0.0307
     56 H           4.5845   -0.1714    0.0000 H       1  UNL1        0.0408
     57 H           4.6154    4.4337    0.0000 H       1  UNL1        0.0235
     58 H           4.6251    5.3105    0.0000 H       1  UNL1        0.0235
     59 H           3.7483    5.3202    0.0000 H       1  UNL1        0.0235
     60 H           2.6711    5.0442    0.0000 H       1  UNL1        0.0235
     61 H           1.9070    4.6142    0.0000 H       1  UNL1        0.0235
     62 H           2.3370    3.8500    0.0000 H       1  UNL1        0.0235
     63 H           1.9688    0.8652    0.0000 H       1  UNL1        0.0298
     64 H           1.7124    0.0761    0.0000 H       1  UNL1        0.0298
     65 H           4.2002   -0.5258    0.0000 H       1  UNL1        0.0743
     66 H           1.9754   -0.5258    0.0000 H       1  UNL1        0.0335
     67 H           6.0504    1.8510    0.0000 H       1  UNL1        0.0782
     68 H           4.5175    1.7338    0.0000 H       1  UNL1        0.0234
     69 H           5.1989    2.2856    0.0000 H       1  UNL1        0.0234
     70 H           4.6471    2.9670    0.0000 H       1  UNL1        0.0234
     71 H           5.1701    0.0068    0.0000 H       1  UNL1        0.0578
     72 H           1.4984   -1.0674    0.0000 H       1  UNL1        0.0234
     73 H           1.6356   -1.9334    0.0000 H       1  UNL1        0.0234
     74 H           2.5016   -1.7962    0.0000 H       1  UNL1        0.0234
     75 H           6.1778    0.3174    0.0000 H       1  UNL1        0.0276
     76 H           6.9905    0.6465    0.0000 H       1  UNL1        0.0276
     77 H           6.6613    1.4592    0.0000 H       1  UNL1        0.0276
     78 H           5.0062   -0.9571    0.0000 H       1  UNL1        0.0626
     79 H           7.3857    0.5299    0.0000 H       1  UNL1        0.0626
     80 H           3.3333   -4.1327    0.0000 H       1  UNL1        0.0626
     81 H           5.6033   -2.4834    0.0000 H       1  UNL1        0.0626
     82 H           7.6698    5.0866    0.0000 H       1  UNL1        0.0626
     83 H           8.3213    2.3574    0.0000 H       1  UNL1        0.0626
     84 H           5.8646   -2.3309    0.0000 H       1  UNL1        0.0618
     85 H           8.2442   -0.8440    0.0000 H       1  UNL1        0.0618
     86 H           7.4836   -2.2744    0.0000 H       1  UNL1        0.0618
     87 H           4.2855   -5.4433    0.0000 H       1  UNL1        0.0618
     88 H           6.5555   -3.7941    0.0000 H       1  UNL1        0.0618
     89 H           9.2456    5.4627    0.0000 H       1  UNL1        0.0618
     90 H           9.8970    2.7335    0.0000 H       1  UNL1        0.0618
     91 H           5.8966   -5.2740    0.0000 H       1  UNL1        0.0618
     92 H          10.3591    4.2862    0.0000 H       1  UNL1        0.0618
@<TRIPOS>BOND
     1     1    11    1
     2     1    12    1
     3    14     2    1
     4     2    28    1
     5    20     3    1
     6     3    29    1
     7    22     4    1
     8     4    30    1
     9     5    28    2
    10     6    29    2
    11     7    30    2
    12     8     9    1
    13     8    10    1
    14     8    11    1
    15     8    49    1
    16     9    10    1
    17     9    17    1
    18     9    18    1
    19    10    15    1
    20    10    50    1
    21    11    13    1
    22    11    51    1
    23    12    14    1
    24    12    16    1
    25    12    19    1
    26    13    14    1
    27    13    23    1
    28    13    52    1
    29    14    53    1
    30    15    22    1
    31    15    54    1
    32    15    55    1
    33    16    20    1
    34    16    24    1
    35    16    56    1
    36    17    57    1
    37    17    58    1
    38    17    59    1
    39    18    60    1
    40    18    61    1
    41    18    62    1
    42    19    21    1
    43    19    63    1
    44    19    64    1
    45    20    21    1
    46    20    65    1
    47    21    26    1
    48    21    66    1
    49    22    25    1
    50    22    67    1
    51    23    68    1
    52    23    69    1
    53    23    70    1
    54    24    25    2
    55    24    71    1
    56    25    27    1
    57    26    72    1
    58    26    73    1
    59    26    74    1
    60    27    75    1
    61    27    76    1
    62    27    77    1
    63    28    31    1
    64    29    32    1
    65    30    33    1
    66    31    34   ar
    67    31    35   ar
    68    32    36   ar
    69    32    37   ar
    70    33    38   ar
    71    33    39   ar
    72    34    40   ar
    73    34    78    1
    74    35    41   ar
    75    35    79    1
    76    36    43   ar
    77    36    80    1
    78    37    44   ar
    79    37    81    1
    80    38    45   ar
    81    38    82    1
    82    39    46   ar
    83    39    83    1
    84    40    42   ar
    85    40    84    1
    86    41    42   ar
    87    41    85    1
    88    42    86    1
    89    43    47   ar
    90    43    87    1
    91    44    47   ar
    92    44    88    1
    93    45    48   ar
    94    45    89    1
    95    46    48   ar
    96    46    90    1
    97    47    91    1
    98    48    92    1
