@<TRIPOS>MOLECULE
IMPHY003592
 134 142 0 0 0
SMALL
GASTEIGER

@<TRIPOS>ATOM
      1 O           9.1562    5.5403    0.0000 O.3     1  UNL1       -0.3448
      2 O           7.3837    6.4351    0.0000 O.3     1  UNL1       -0.3480
      3 O           7.7331   -2.7038    0.0000 O.3     1  UNL1       -0.3451
      4 O           6.0010   -2.7038    0.0000 O.3     1  UNL1       -0.3405
      5 O           7.7331   -4.7038    0.0000 O.3     1  UNL1       -0.3378
      6 O           6.0010   -5.7038    0.0000 O.3     1  UNL1       -0.3400
      7 O           4.2690   -4.7038    0.0000 O.3     1  UNL1       -0.3865
      8 O           8.5991   -3.2038    0.0000 O.3     1  UNL1       -0.3431
      9 O           4.2690   -1.7038    0.0000 O.3     1  UNL1       -0.3924
     10 O           4.2690   -5.7038    0.0000 O.3     1  UNL1       -0.3405
     11 O           9.4651   -5.7038    0.0000 O.3     1  UNL1       -0.3841
     12 O           6.0010   -7.7038    0.0000 O.3     1  UNL1       -0.3841
     13 O          11.1972   -4.7038    0.0000 O.3     1  UNL1       -0.3864
     14 O          11.1972   -2.7038    0.0000 O.3     1  UNL1       -0.3866
     15 O           4.2690   -8.7038    0.0000 O.3     1  UNL1       -0.3864
     16 O           2.5369   -7.7038    0.0000 O.3     1  UNL1       -0.3865
     17 O           2.5369   -4.7038    0.0000 O.3     1  UNL1       -0.3924
     18 C           7.7624    3.4931    0.0000 C.3     1  UNL1       -0.0233
     19 C           8.6303    2.9965    0.0000 C.3     1  UNL1       -0.0295
     20 C           7.9678    4.4657    0.0000 C.3     1  UNL1       -0.0015
     21 C           8.6342    1.9965    0.0000 C.3     1  UNL1       -0.0306
     22 C           8.9561    4.5726    0.0000 C.3     1  UNL1        0.0660
     23 C           7.7701    1.4931    0.0000 C.3     1  UNL1       -0.0285
     24 C           9.3647    3.6664    0.0000 C.3     1  UNL1       -0.0226
     25 C           6.8983    2.9898    0.0000 C.3     1  UNL1       -0.0467
     26 C           7.5655    5.3683    0.0000 C.3     1  UNL1        0.0160
     27 C           6.9021    1.9898    0.0000 C.3     1  UNL1       -0.0486
     28 C           7.7580    0.4516    0.0000 C.3     1  UNL1       -0.0078
     29 C           8.2985    6.0311    0.0000 C.3     1  UNL1        0.1732
     30 C           6.8944    3.9898    0.0000 C.3     1  UNL1       -0.0590
     31 C           9.5461    1.4931    0.0000 C.3     1  UNL1       -0.0311
     32 C           8.6581   -0.0727    0.0000 C.2     1  UNL1       -0.0648
     33 C           6.8081   -0.0727    0.0000 C.3     1  UNL1       -0.0413
     34 C           6.5871    5.5750    0.0000 C.3     1  UNL1       -0.0572
     35 C           9.1057    6.6213    0.0000 C.3     1  UNL1        0.0020
     36 C           9.5581    0.4516    0.0000 C.2     1  UNL1       -0.0839
     37 C           6.8939    0.9549    0.0000 C.3     1  UNL1       -0.0556
     38 C           8.6706   -1.1576    0.0000 C.3     1  UNL1       -0.0047
     39 C           6.7956   -1.1576    0.0000 C.3     1  UNL1       -0.0254
     40 C           7.7331   -1.7038    0.0000 C.3     1  UNL1        0.0655
     41 C           8.9982    7.6155    0.0000 C.3     1  UNL1       -0.0435
     42 C           8.0835    8.0195    0.0000 C.3     1  UNL1       -0.0201
     43 C           7.2762    7.4293    0.0000 C.3     1  UNL1        0.0535
     44 C           7.9760    9.0138    0.0000 C.3     1  UNL1       -0.0603
     45 C           6.8671   -3.2038    0.0000 C.3     1  UNL1        0.1886
     46 C           6.8671   -4.2038    0.0000 C.3     1  UNL1        0.1410
     47 C           6.0010   -4.7038    0.0000 C.3     1  UNL1        0.1209
     48 C           5.1350   -3.2038    0.0000 C.3     1  UNL1        0.1130
     49 C           5.1350   -4.2038    0.0000 C.3     1  UNL1        0.1123
     50 C           4.2690   -2.7038    0.0000 C.3     1  UNL1        0.0730
     51 C           8.5991   -4.2038    0.0000 C.3     1  UNL1        0.1884
     52 C           5.1350   -6.2038    0.0000 C.3     1  UNL1        0.1884
     53 C           9.4651   -4.7038    0.0000 C.3     1  UNL1        0.1341
     54 C           5.1350   -7.2038    0.0000 C.3     1  UNL1        0.1341
     55 C          10.3312   -4.2038    0.0000 C.3     1  UNL1        0.1140
     56 C           9.4651   -2.7038    0.0000 C.3     1  UNL1        0.0873
     57 C          10.3312   -3.2038    0.0000 C.3     1  UNL1        0.1095
     58 C           4.2690   -7.7038    0.0000 C.3     1  UNL1        0.1141
     59 C           3.4030   -6.2038    0.0000 C.3     1  UNL1        0.1130
     60 C           3.4030   -7.2038    0.0000 C.3     1  UNL1        0.1119
     61 C           9.4651   -1.7038    0.0000 C.3     1  UNL1       -0.0361
     62 C           2.5369   -5.7038    0.0000 C.3     1  UNL1        0.0730
     63 H           9.4086    2.6548    0.0000 H       1  UNL1        0.0310
     64 H           7.1225    4.3762    0.0000 H       1  UNL1        0.0335
     65 H           9.3653    2.4300    0.0000 H       1  UNL1        0.0310
     66 H           9.8010    4.6658    0.0000 H       1  UNL1        0.0600
     67 H           8.5045    1.0653    0.0000 H       1  UNL1        0.0312
     68 H           9.7321    3.1670    0.0000 H       1  UNL1        0.0293
     69 H           9.9000    3.9792    0.0000 H       1  UNL1        0.0293
     70 H           6.6840    3.5716    0.0000 H       1  UNL1        0.0271
     71 H           6.2881    2.8798    0.0000 H       1  UNL1        0.0271
     72 H           7.4040    5.9669    0.0000 H       1  UNL1        0.0354
     73 H           6.2911    2.0951    0.0000 H       1  UNL1        0.0268
     74 H           6.6923    1.4064    0.0000 H       1  UNL1        0.0268
     75 H           7.2023    4.5279    0.0000 H       1  UNL1        0.0235
     76 H           6.3563    4.2977    0.0000 H       1  UNL1        0.0235
     77 H           6.5865    3.4517    0.0000 H       1  UNL1        0.0235
     78 H          10.1581    1.3941    0.0000 H       1  UNL1        0.0310
     79 H           9.7484    2.0792    0.0000 H       1  UNL1        0.0310
     80 H           6.6058    0.5134    0.0000 H       1  UNL1        0.0274
     81 H           6.1961   -0.1717    0.0000 H       1  UNL1        0.0274
     82 H           6.7152    6.1816    0.0000 H       1  UNL1        0.0234
     83 H           5.9805    5.7032    0.0000 H       1  UNL1        0.0234
     84 H           6.4590    4.9684    0.0000 H       1  UNL1        0.0234
     85 H           9.3792    6.0649    0.0000 H       1  UNL1        0.0317
     86 H           9.7012    6.7940    0.0000 H       1  UNL1        0.0317
     87 H          10.0975    0.1457    0.0000 H       1  UNL1        0.0572
     88 H           7.2060    1.4906    0.0000 H       1  UNL1        0.0238
     89 H           6.3582    1.2670    0.0000 H       1  UNL1        0.0238
     90 H           6.5818    0.4192    0.0000 H       1  UNL1        0.0238
     91 H           8.8864   -1.7389    0.0000 H       1  UNL1        0.0335
     92 H           9.2802   -1.0445    0.0000 H       1  UNL1        0.0335
     93 H           6.1860   -1.0445    0.0000 H       1  UNL1        0.0290
     94 H           6.5798   -1.7389    0.0000 H       1  UNL1        0.0290
     95 H           8.2706   -2.0127    0.0000 H       1  UNL1        0.0600
     96 H           9.6168    7.5741    0.0000 H       1  UNL1        0.0270
     97 H           9.1464    8.2176    0.0000 H       1  UNL1        0.0270
     98 H           8.5840    8.3855    0.0000 H       1  UNL1        0.0320
     99 H           7.0028    7.9858    0.0000 H       1  UNL1        0.0563
    100 H           6.6808    7.2567    0.0000 H       1  UNL1        0.0563
    101 H           8.5924    9.0804    0.0000 H       1  UNL1        0.0233
    102 H           7.9093    9.6302    0.0000 H       1  UNL1        0.0233
    103 H           7.3596    8.9471    0.0000 H       1  UNL1        0.0233
    104 H           7.4040   -3.5138    0.0000 H       1  UNL1        0.0938
    105 H           6.8671   -4.8238    0.0000 H       1  UNL1        0.0675
    106 H           5.4641   -5.0138    0.0000 H       1  UNL1        0.0651
    107 H           5.1350   -2.5838    0.0000 H       1  UNL1        0.0647
    108 H           4.5981   -3.8938    0.0000 H       1  UNL1        0.0647
    109 H           3.6584   -2.5961    0.0000 H       1  UNL1        0.0584
    110 H           4.0569   -3.2864    0.0000 H       1  UNL1        0.0584
    111 H           8.5991   -4.8238    0.0000 H       1  UNL1        0.0938
    112 H           3.7320   -4.3938    0.0000 H       1  UNL1        0.2100
    113 H           5.1350   -5.5838    0.0000 H       1  UNL1        0.0938
    114 H          10.0021   -5.0138    0.0000 H       1  UNL1        0.0671
    115 H           5.1350   -7.8238    0.0000 H       1  UNL1        0.0671
    116 H          10.8681   -3.8938    0.0000 H       1  UNL1        0.0648
    117 H           3.7320   -1.3938    0.0000 H       1  UNL1        0.2095
    118 H           8.9282   -2.3938    0.0000 H       1  UNL1        0.0621
    119 H          10.3312   -2.5838    0.0000 H       1  UNL1        0.0646
    120 H           3.7320   -8.0138    0.0000 H       1  UNL1        0.0648
    121 H           3.4030   -5.5838    0.0000 H       1  UNL1        0.0647
    122 H           2.8660   -6.8938    0.0000 H       1  UNL1        0.0647
    123 H          10.0021   -6.0138    0.0000 H       1  UNL1        0.2101
    124 H          10.0851   -1.7038    0.0000 H       1  UNL1        0.0255
    125 H           9.4651   -1.0838    0.0000 H       1  UNL1        0.0255
    126 H           8.8451   -1.7038    0.0000 H       1  UNL1        0.0255
    127 H           6.0010   -8.3238    0.0000 H       1  UNL1        0.2101
    128 H          11.7341   -4.3938    0.0000 H       1  UNL1        0.2100
    129 H           1.9264   -5.5961    0.0000 H       1  UNL1        0.0584
    130 H           2.3249   -6.2864    0.0000 H       1  UNL1        0.0584
    131 H          11.1972   -2.0838    0.0000 H       1  UNL1        0.2100
    132 H           3.7320   -9.0138    0.0000 H       1  UNL1        0.2100
    133 H           2.0000   -7.3938    0.0000 H       1  UNL1        0.2100
    134 H           2.0000   -4.3938    0.0000 H       1  UNL1        0.2095
@<TRIPOS>BOND
     1     1    22    1
     2    29     1    1
     3     2    29    1
     4     2    43    1
     5    40     3    1
     6    45     3    1
     7     4    45    1
     8     4    48    1
     9    46     5    1
    10    51     5    1
    11    47     6    1
    12    52     6    1
    13    49     7    1
    14     7   112    1
    15     8    51    1
    16     8    56    1
    17     9    50    1
    18     9   117    1
    19    10    52    1
    20    10    59    1
    21    53    11    1
    22    11   123    1
    23    54    12    1
    24    12   127    1
    25    55    13    1
    26    13   128    1
    27    57    14    1
    28    14   131    1
    29    58    15    1
    30    15   132    1
    31    60    16    1
    32    16   133    1
    33    17    62    1
    34    17   134    1
    35    18    19    1
    36    18    20    1
    37    18    25    1
    38    18    30    1
    39    19    21    1
    40    19    24    1
    41    19    63    1
    42    20    22    1
    43    20    26    1
    44    20    64    1
    45    21    23    1
    46    21    31    1
    47    21    65    1
    48    22    24    1
    49    22    66    1
    50    23    27    1
    51    23    28    1
    52    23    67    1
    53    24    68    1
    54    24    69    1
    55    25    27    1
    56    25    70    1
    57    25    71    1
    58    26    29    1
    59    26    34    1
    60    26    72    1
    61    27    73    1
    62    27    74    1
    63    28    32    1
    64    28    33    1
    65    28    37    1
    66    29    35    1
    67    30    75    1
    68    30    76    1
    69    30    77    1
    70    31    36    1
    71    31    78    1
    72    31    79    1
    73    32    36    2
    74    32    38    1
    75    33    39    1
    76    33    80    1
    77    33    81    1
    78    34    82    1
    79    34    83    1
    80    34    84    1
    81    35    41    1
    82    35    85    1
    83    35    86    1
    84    36    87    1
    85    37    88    1
    86    37    89    1
    87    37    90    1
    88    38    40    1
    89    38    91    1
    90    38    92    1
    91    39    40    1
    92    39    93    1
    93    39    94    1
    94    40    95    1
    95    41    42    1
    96    41    96    1
    97    41    97    1
    98    42    43    1
    99    42    44    1
   100    42    98    1
   101    43    99    1
   102    43   100    1
   103    44   101    1
   104    44   102    1
   105    44   103    1
   106    45    46    1
   107    45   104    1
   108    46    47    1
   109    46   105    1
   110    47    49    1
   111    47   106    1
   112    48    49    1
   113    48    50    1
   114    48   107    1
   115    49   108    1
   116    50   109    1
   117    50   110    1
   118    51    53    1
   119    51   111    1
   120    52    54    1
   121    52   113    1
   122    53    55    1
   123    53   114    1
   124    54    58    1
   125    54   115    1
   126    55    57    1
   127    55   116    1
   128    56    57    1
   129    56    61    1
   130    56   118    1
   131    57   119    1
   132    58    60    1
   133    58   120    1
   134    59    60    1
   135    59    62    1
   136    59   121    1
   137    60   122    1
   138    61   124    1
   139    61   125    1
   140    61   126    1
   141    62   129    1
   142    62   130    1
