@<TRIPOS>MOLECULE
IMPHY001421
 44 46 0 0 0
SMALL
GASTEIGER

@<TRIPOS>ATOM
      1 O           6.3580   -1.8017    0.0000 O.2     1  UNL1       -0.4618
      2 O           2.8660    0.2329    0.0000 O.3     1  UNL1       -0.4885
      3 O           2.8660   -1.7671    0.0000 O.3     1  UNL1       -0.4912
      4 O           4.5981    1.2329    0.0000 O.3     1  UNL1       -0.5027
      5 O           6.3465    1.2675    0.0000 O.2     1  UNL1       -0.2863
      6 O          10.7282   -0.2329    0.0000 O.3     1  UNL1       -0.4914
      7 O          10.7205    1.7671    0.0000 O.3     1  UNL1       -0.4915
      8 C           5.4641   -0.2671    0.0000 C.ar    1  UNL1        0.1097
      9 C           7.2641   -0.2463    0.0000 C.ar    1  UNL1        0.0645
     10 C           5.4641   -1.2671    0.0000 C.ar    1  UNL1        0.1457
     11 C           6.3580    0.2676    0.0000 C.ar    1  UNL1        0.2038
     12 C           8.1282    0.2571    0.0000 C.ar    1  UNL1       -0.0076
     13 C           4.5981    0.2329    0.0000 C.ar    1  UNL1        0.1768
     14 C           3.7320   -0.2671    0.0000 C.ar    1  UNL1        0.2043
     15 C           4.5981   -1.7671    0.0000 C.ar    1  UNL1        0.0270
     16 C           3.7320   -1.2671    0.0000 C.ar    1  UNL1        0.1687
     17 C           7.2641   -1.2879    0.0000 C.ar    1  UNL1        0.1038
     18 C           8.9962   -0.2396    0.0000 C.ar    1  UNL1       -0.0084
     19 C           8.1244    1.2571    0.0000 C.ar    1  UNL1       -0.0501
     20 C           9.8602    0.2638    0.0000 C.ar    1  UNL1        0.1621
     21 C           9.8564    1.2638    0.0000 C.ar    1  UNL1        0.1615
     22 C           8.9884    1.7604    0.0000 C.ar    1  UNL1       -0.0157
     23 C           2.0000   -0.2671    0.0000 C.3     1  UNL1        0.0791
     24 C           2.8660   -2.7671    0.0000 C.3     1  UNL1        0.0790
     25 C          10.7320   -1.2329    0.0000 C.3     1  UNL1        0.0790
     26 C          10.7166    2.7671    0.0000 C.3     1  UNL1        0.0790
     27 H           4.5981   -2.3871    0.0000 H       1  UNL1        0.0692
     28 H           7.7998   -1.6000    0.0000 H       1  UNL1        0.1037
     29 H           8.9985   -0.8596    0.0000 H       1  UNL1        0.0661
     30 H           7.5862    1.5650    0.0000 H       1  UNL1        0.0625
     31 H           8.9860    2.3804    0.0000 H       1  UNL1        0.0655
     32 H           4.0611    1.5429    0.0000 H       1  UNL1        0.2923
     33 H           1.6900    0.2699    0.0000 H       1  UNL1        0.0660
     34 H           1.4631   -0.5771    0.0000 H       1  UNL1        0.0660
     35 H           2.3100   -0.8040    0.0000 H       1  UNL1        0.0660
     36 H           2.2460   -2.7671    0.0000 H       1  UNL1        0.0660
     37 H           2.8660   -3.3871    0.0000 H       1  UNL1        0.0660
     38 H           3.4860   -2.7671    0.0000 H       1  UNL1        0.0660
     39 H          10.1120   -1.2353    0.0000 H       1  UNL1        0.0660
     40 H          10.7344   -1.8529    0.0000 H       1  UNL1        0.0660
     41 H          11.3520   -1.2305    0.0000 H       1  UNL1        0.0660
     42 H          11.3366    2.7695    0.0000 H       1  UNL1        0.0660
     43 H          10.7142    3.3871    0.0000 H       1  UNL1        0.0660
     44 H          10.0966    2.7647    0.0000 H       1  UNL1        0.0660
@<TRIPOS>BOND
     1     1    10   ar
     2     1    17   ar
     3     2    14    1
     4     2    23    1
     5     3    16    1
     6     3    24    1
     7     4    13    1
     8     4    32    1
     9     5    11    2
    10     6    20    1
    11     6    25    1
    12     7    21    1
    13     7    26    1
    14     8    10   ar
    15     8    11   ar
    16     8    13   ar
    17     9    11   ar
    18     9    12    1
    19     9    17   ar
    20    10    15   ar
    21    12    18   ar
    22    12    19   ar
    23    13    14   ar
    24    14    16   ar
    25    15    16   ar
    26    15    27    1
    27    17    28    1
    28    18    20   ar
    29    18    29    1
    30    19    22   ar
    31    19    30    1
    32    20    21   ar
    33    21    22   ar
    34    22    31    1
    35    23    33    1
    36    23    34    1
    37    23    35    1
    38    24    36    1
    39    24    37    1
    40    24    38    1
    41    25    39    1
    42    25    40    1
    43    25    41    1
    44    26    42    1
    45    26    43    1
    46    26    44    1
