@<TRIPOS>MOLECULE
IMPHY010172
 47 52 0 0 0
SMALL
GASTEIGER

@<TRIPOS>ATOM
      1 O           5.3981   -5.9898    0.0000 O.3     1  UNL1       -0.3318
      2 C           6.9076   -5.8811    0.0000 C.3     1  UNL1        0.1283
      3 C           8.0307   -5.2290    0.0000 C.3     1  UNL1        0.0214
      4 C           8.0307   -3.9369    0.0000 C.3     1  UNL1        0.0404
      5 C           6.9076   -3.2968    0.0000 C.3     1  UNL1        0.0034
      6 C           5.7724   -3.9369    0.0000 C.3     1  UNL1       -0.0013
      7 C           5.7724   -5.2290    0.0000 C.3     1  UNL1        0.0118
      8 C           4.5286   -5.5792    0.0000 C.3     1  UNL1        0.0521
      9 C           3.8885   -6.7023    0.0000 C.3     1  UNL1        0.0190
     10 C           4.2146   -7.9462    0.0000 C.3     1  UNL1        0.0404
     11 C           5.3377   -8.5862    0.0000 C.3     1  UNL1        0.2046
     12 C           6.5936   -8.2481    0.0000 C.3     1  UNL1        0.2502
     13 C           7.2457   -7.1250    0.0000 C.3     1  UNL1        0.2286
     14 C           4.8184   -7.3544    0.0000 C.3     1  UNL1        0.2511
     15 C           9.1417   -5.8811    0.0000 C.3     1  UNL1        0.1081
     16 C          10.2648   -5.2290    0.0000 C.2     1  UNL1        0.3169
     17 O          10.2648   -3.9369    0.0000 O.3     1  UNL1       -0.4476
     18 C           9.1417   -3.2968    0.0000 C.3     1  UNL1        0.1937
     19 C           8.0307   -2.6447    0.0000 C.3     1  UNL1        0.0037
     20 C           3.8161   -4.4803    0.0000 C.3     1  UNL1        0.0048
     21 C           2.5964   -6.7023    0.0000 C.3     1  UNL1        0.1098
     22 C           1.9322   -5.5792    0.0000 C.2     1  UNL1        0.3171
     23 O           2.5964   -4.4561    0.0000 O.2     1  UNL1       -0.2501
     24 C           2.9345   -8.1152    0.0000 C.3     1  UNL1        0.0037
     25 C           3.7195   -9.1417    0.0000 C.3     1  UNL1        0.0037
     26 O           5.0116   -9.8301    0.0000 O.3     1  UNL1       -0.4494
     27 C           5.6517  -10.9531    0.0000 C.2     1  UNL1        0.3175
     28 O           6.9438  -10.9531    0.0000 O.2     1  UNL1       -0.2501
     29 O           7.3061   -9.3108    0.0000 O.3     1  UNL1       -0.2129
     30 O           8.5379   -7.1129    0.0000 O.3     1  UNL1       -0.4469
     31 C           9.1900   -8.2360    0.0000 C.2     1  UNL1        0.3165
     32 O           8.5379   -9.3591    0.0000 O.2     1  UNL1       -0.2501
     33 O           3.2244   -7.3544    0.0000 O.3     1  UNL1       -0.1924
     34 O          11.3879   -5.8811    0.0000 O.2     1  UNL1       -0.2501
     35 C           9.1417   -1.9805    0.0000 C.ar    1  UNL1        0.0580
     36 C          10.1923   -1.2318    0.0000 C.ar    1  UNL1        0.1789
     37 O           9.7938    0.0000    0.0000 O.2     1  UNL1       -0.4475
     38 C           8.5017    0.0000    0.0000 C.ar    1  UNL1        0.1795
     39 C           8.0911   -1.2318    0.0000 C.ar    1  UNL1        0.0430
     40 O           0.6400   -5.5792    0.0000 O.3     1  UNL1       -0.4444
     41 C           0.0000   -4.4561    0.0000 C.3     1  UNL1        0.2556
     42 C           5.0116  -12.0762    0.0000 C.3     1  UNL1        0.1212
     43 C          10.4822   -8.2360    0.0000 C.3     1  UNL1        0.0991
     44 C          11.1222   -9.3591    0.0000 C.3     1  UNL1        0.0116
     45 C          11.1222   -7.1129    0.0000 C.3     1  UNL1        0.0116
     46 H           8.0307   -6.5212    0.0000 H       1  UNL1        0.0348
     47 H           4.9754   -4.2871    0.0000 H       1  UNL1        0.0343
@<TRIPOS>BOND
     1     1    14    1
     2     2     1    1
     3     2     3    1
     4     2    13    1
     5     2     7    1
     6     3     4    1
     7     3    15    1
     8     3    46    1
     9     4     5    1
    10     4    18    1
    11     4    19    1
    12     5     6    1
    13     6     7    1
    14     7     8    1
    15     7    47    1
    16     8    14    1
    17     8    20    1
    18     8     9    1
    19     9    10    1
    20     9    21    1
    21    10    11    1
    22    10    24    1
    23    10    25    1
    24    11    12    1
    25    11    26    1
    26    12    13    1
    27    12    14    1
    28    12    29    1
    29    13    30    1
    30    14    33    1
    31    15    16    1
    32    16    17    1
    33    16    34    2
    34    17    18    1
    35    18    35    1
    36    21    22    1
    37    22    23    2
    38    22    40    1
    39    26    27    1
    40    27    28    2
    41    27    42    1
    42    30    31    1
    43    31    43    1
    44    31    32    2
    45    35    39   ar
    46    35    36   ar
    47    36    37   ar
    48    37    38   ar
    49    38    39   ar
    50    40    41    1
    51    43    44    1
    52    43    45    1
