@<TRIPOS>MOLECULE
IMPHY004589
 92 96 0 0 0
SMALL
GASTEIGER

@<TRIPOS>ATOM
      1 O          14.2045   -3.8761    0.0000 O.3     1  UNL1       -0.4796
      2 O          13.8474   -0.5718    0.0000 O.3     1  UNL1       -0.4608
      3 O          12.3923   -5.0713    0.0000 O.3     1  UNL1       -0.4914
      4 O          17.7882   -4.8034    0.0000 O.3     1  UNL1       -0.4914
      5 O          18.7882   -3.0713    0.0000 O.3     1  UNL1       -0.5033
      6 O           8.0622   -2.5713    0.0000 O.3     1  UNL1       -0.4616
      7 O          15.1365    0.5850    0.0000 O.2     1  UNL1       -0.2456
      8 O           7.1962   -1.0713    0.0000 O.2     1  UNL1       -0.2456
      9 O          13.0865    5.4632    0.0000 O.3     1  UNL1       -0.4914
     10 O          11.1295    5.0508    0.0000 O.3     1  UNL1       -0.5033
     11 O           2.0000   -2.0713    0.0000 O.3     1  UNL1       -0.4914
     12 O           2.0000   -4.0713    0.0000 O.3     1  UNL1       -0.5033
     13 C          14.2045   -2.2666    0.0000 C.3     1  UNL1        0.0631
     14 C          14.7882   -3.0713    0.0000 C.3     1  UNL1        0.1354
     15 C          13.2583   -2.5713    0.0000 C.ar    1  UNL1        0.0084
     16 C          13.2583   -3.5713    0.0000 C.ar    1  UNL1        0.1665
     17 C          14.5152   -1.3161    0.0000 C.3     1  UNL1        0.1034
     18 C          15.7882   -3.0713    0.0000 C.ar    1  UNL1       -0.0030
     19 C          12.3923   -2.0713    0.0000 C.ar    1  UNL1       -0.0512
     20 C          11.5263   -2.5713    0.0000 C.ar    1  UNL1       -0.0433
     21 C          12.3923   -4.0713    0.0000 C.ar    1  UNL1        0.1621
     22 C          11.5263   -3.5713    0.0000 C.ar    1  UNL1       -0.0131
     23 C          10.6603   -2.0713    0.0000 C.3     1  UNL1       -0.0245
     24 C          16.2882   -3.9374    0.0000 C.ar    1  UNL1       -0.0096
     25 C          16.2882   -2.2053    0.0000 C.ar    1  UNL1       -0.0514
     26 C           9.7942   -2.5713    0.0000 C.3     1  UNL1       -0.0145
     27 C          17.2882   -3.9374    0.0000 C.ar    1  UNL1        0.1616
     28 C          17.2882   -2.2053    0.0000 C.ar    1  UNL1       -0.0161
     29 C          17.7882   -3.0713    0.0000 C.ar    1  UNL1        0.1585
     30 C           8.9282   -2.0713    0.0000 C.3     1  UNL1        0.0931
     31 C          14.1580    0.3787    0.0000 C.2     1  UNL1        0.3320
     32 C          11.5263   -5.5713    0.0000 C.3     1  UNL1        0.0790
     33 C          13.4902    1.1230    0.0000 C.2     1  UNL1        0.0231
     34 C          17.2882   -5.6694    0.0000 C.3     1  UNL1        0.0790
     35 C          13.8008    2.0736    0.0000 C.2     1  UNL1       -0.0477
     36 C           7.1962   -2.0713    0.0000 C.2     1  UNL1        0.3319
     37 C          13.1330    2.8179    0.0000 C.ar    1  UNL1       -0.0211
     38 C           6.3301   -2.5713    0.0000 C.2     1  UNL1        0.0231
     39 C          13.4437    3.7684    0.0000 C.ar    1  UNL1       -0.0092
     40 C          12.1545    2.6116    0.0000 C.ar    1  UNL1       -0.0509
     41 C           5.4641   -2.0713    0.0000 C.2     1  UNL1       -0.0477
     42 C          12.7758    4.5127    0.0000 C.ar    1  UNL1        0.1618
     43 C          11.4867    3.3559    0.0000 C.ar    1  UNL1       -0.0160
     44 C          11.7973    4.3065    0.0000 C.ar    1  UNL1        0.1585
     45 C           4.5981   -2.5713    0.0000 C.ar    1  UNL1       -0.0211
     46 C           3.7320   -2.0713    0.0000 C.ar    1  UNL1       -0.0092
     47 C           4.5981   -3.5713    0.0000 C.ar    1  UNL1       -0.0509
     48 C           2.8660   -2.5713    0.0000 C.ar    1  UNL1        0.1618
     49 C           3.7320   -4.0713    0.0000 C.ar    1  UNL1       -0.0160
     50 C           2.8660   -3.5713    0.0000 C.ar    1  UNL1        0.1585
     51 C          14.0650    5.6694    0.0000 C.3     1  UNL1        0.0790
     52 C           2.0000   -1.0713    0.0000 C.3     1  UNL1        0.0790
     53 H          13.7671   -1.8273    0.0000 H       1  UNL1        0.0423
     54 H          15.0699   -3.6236    0.0000 H       1  UNL1        0.0792
     55 H          15.0621   -1.6081    0.0000 H       1  UNL1        0.0705
     56 H          14.8978   -0.8282    0.0000 H       1  UNL1        0.0705
     57 H          12.3923   -1.4513    0.0000 H       1  UNL1        0.0624
     58 H          10.9893   -3.8813    0.0000 H       1  UNL1        0.0658
     59 H          11.0588   -1.5964    0.0000 H       1  UNL1        0.0314
     60 H          10.2617   -1.5964    0.0000 H       1  UNL1        0.0314
     61 H          15.9782   -4.4743    0.0000 H       1  UNL1        0.0659
     62 H          15.9782   -1.6684    0.0000 H       1  UNL1        0.0623
     63 H           9.3957   -3.0463    0.0000 H       1  UNL1        0.0301
     64 H          10.1928   -3.0463    0.0000 H       1  UNL1        0.0301
     65 H          17.5982   -1.6684    0.0000 H       1  UNL1        0.0655
     66 H           9.3267   -1.5964    0.0000 H       1  UNL1        0.0697
     67 H           8.5297   -1.5964    0.0000 H       1  UNL1        0.0697
     68 H          11.2163   -5.0344    0.0000 H       1  UNL1        0.0660
     69 H          10.9893   -5.8813    0.0000 H       1  UNL1        0.0660
     70 H          11.8363   -6.1083    0.0000 H       1  UNL1        0.0660
     71 H          12.8835    0.9952    0.0000 H       1  UNL1        0.0689
     72 H          19.0982   -2.5344    0.0000 H       1  UNL1        0.2923
     73 H          16.7512   -5.3594    0.0000 H       1  UNL1        0.0660
     74 H          16.9782   -6.2063    0.0000 H       1  UNL1        0.0660
     75 H          17.8251   -5.9794    0.0000 H       1  UNL1        0.0660
     76 H          14.4075    2.2014    0.0000 H       1  UNL1        0.0626
     77 H           6.3301   -3.1913    0.0000 H       1  UNL1        0.0689
     78 H          14.0503    3.8962    0.0000 H       1  UNL1        0.0661
     79 H          11.9619    2.0223    0.0000 H       1  UNL1        0.0625
     80 H           5.4641   -1.4513    0.0000 H       1  UNL1        0.0626
     81 H          10.8800    3.2281    0.0000 H       1  UNL1        0.0655
     82 H           3.7320   -1.4513    0.0000 H       1  UNL1        0.0661
     83 H           5.1350   -3.8813    0.0000 H       1  UNL1        0.0625
     84 H          10.5228    4.9229    0.0000 H       1  UNL1        0.2923
     85 H           3.7320   -4.6913    0.0000 H       1  UNL1        0.0655
     86 H          14.1928    5.0627    0.0000 H       1  UNL1        0.0660
     87 H          14.6717    5.7973    0.0000 H       1  UNL1        0.0660
     88 H          13.9371    6.2761    0.0000 H       1  UNL1        0.0660
     89 H           2.0000   -4.6913    0.0000 H       1  UNL1        0.2923
     90 H           2.6200   -1.0713    0.0000 H       1  UNL1        0.0660
     91 H           2.0000   -0.4513    0.0000 H       1  UNL1        0.0660
     92 H           1.3800   -1.0713    0.0000 H       1  UNL1        0.0660
@<TRIPOS>BOND
     1     1    14    1
     2     1    16    1
     3     2    17    1
     4     2    31    1
     5     3    21    1
     6     3    32    1
     7     4    27    1
     8     4    34    1
     9     5    29    1
    10     5    72    1
    11     6    30    1
    12     6    36    1
    13     7    31    2
    14     8    36    2
    15     9    42    1
    16     9    51    1
    17    10    44    1
    18    10    84    1
    19    11    48    1
    20    11    52    1
    21    12    50    1
    22    12    89    1
    23    13    14    1
    24    13    15    1
    25    13    17    1
    26    13    53    1
    27    14    18    1
    28    14    54    1
    29    15    16   ar
    30    15    19   ar
    31    16    21   ar
    32    17    55    1
    33    17    56    1
    34    18    24   ar
    35    18    25   ar
    36    19    20   ar
    37    19    57    1
    38    20    22   ar
    39    20    23    1
    40    21    22   ar
    41    22    58    1
    42    23    26    1
    43    23    59    1
    44    23    60    1
    45    24    27   ar
    46    24    61    1
    47    25    28   ar
    48    25    62    1
    49    26    30    1
    50    26    63    1
    51    26    64    1
    52    27    29   ar
    53    28    29   ar
    54    28    65    1
    55    30    66    1
    56    30    67    1
    57    31    33    1
    58    32    68    1
    59    32    69    1
    60    32    70    1
    61    33    35    2
    62    33    71    1
    63    34    73    1
    64    34    74    1
    65    34    75    1
    66    35    37    1
    67    35    76    1
    68    36    38    1
    69    37    39   ar
    70    37    40   ar
    71    38    41    2
    72    38    77    1
    73    39    42   ar
    74    39    78    1
    75    40    43   ar
    76    40    79    1
    77    41    45    1
    78    41    80    1
    79    42    44   ar
    80    43    44   ar
    81    43    81    1
    82    45    46   ar
    83    45    47   ar
    84    46    48   ar
    85    46    82    1
    86    47    49   ar
    87    47    83    1
    88    48    50   ar
    89    49    50   ar
    90    49    85    1
    91    51    86    1
    92    51    87    1
    93    51    88    1
    94    52    90    1
    95    52    91    1
    96    52    92    1
