@<TRIPOS>MOLECULE
IMPHY001302
 34 36 0 0 0
SMALL
GASTEIGER

@<TRIPOS>ATOM
      1 O           4.3198    1.4710    0.0000 O.3     1  UNL1       -0.4907
      2 O           2.5381   -1.5878    0.0000 O.3     1  UNL1       -0.4913
      3 O           5.1804    1.9678    0.0000 O.3     1  UNL1       -0.5061
      4 O           2.5381    0.4605    0.0000 O.3     1  UNL1       -0.5009
      5 C           5.2022   -0.0636    0.0000 C.ar    1  UNL1        0.0388
      6 C           6.0682    0.4364    0.0000 C.ar    1  UNL1        0.0349
      7 C           5.2022   -1.0636    0.0000 C.ar    1  UNL1       -0.0100
      8 C           6.9343   -0.0636    0.0000 C.ar    1  UNL1       -0.0137
      9 C           4.3083    0.4710    0.0000 C.ar    1  UNL1        0.1733
     10 C           6.0682   -1.5636    0.0000 C.ar    1  UNL1       -0.0532
     11 C           6.9343   -1.0636    0.0000 C.ar    1  UNL1       -0.0533
     12 C           4.3083   -1.5983    0.0000 C.ar    1  UNL1       -0.0083
     13 C           6.0522    1.4779    0.0000 C.ar    1  UNL1        0.1252
     14 C           3.4022   -0.0428    0.0000 C.ar    1  UNL1        0.2017
     15 C           3.4022   -1.0844    0.0000 C.ar    1  UNL1        0.1656
     16 C           7.8443    0.4432    0.0000 C.ar    1  UNL1       -0.0538
     17 C           6.9502    2.0056    0.0000 C.ar    1  UNL1       -0.0195
     18 C           7.8523    1.4848    0.0000 C.ar    1  UNL1       -0.0577
     19 C           3.4597    1.9809    0.0000 C.3     1  UNL1        0.0790
     20 C           2.5420   -2.5878    0.0000 C.3     1  UNL1        0.0790
     21 H           6.0682   -2.1836    0.0000 H       1  UNL1        0.0624
     22 H           7.4712   -1.3736    0.0000 H       1  UNL1        0.0624
     23 H           4.3154   -2.2183    0.0000 H       1  UNL1        0.0661
     24 H           8.3776    0.1270    0.0000 H       1  UNL1        0.0624
     25 H           6.9478    2.6256    0.0000 H       1  UNL1        0.0654
     26 H           8.3904    1.7927    0.0000 H       1  UNL1        0.0619
     27 H           5.1733    2.5878    0.0000 H       1  UNL1        0.2922
     28 H           2.0000    0.1526    0.0000 H       1  UNL1        0.2924
     29 H           3.7758    2.5142    0.0000 H       1  UNL1        0.0660
     30 H           2.9263    2.2971    0.0000 H       1  UNL1        0.0660
     31 H           3.1435    1.4476    0.0000 H       1  UNL1        0.0660
     32 H           1.9220   -2.5902    0.0000 H       1  UNL1        0.0660
     33 H           2.5444   -3.2078    0.0000 H       1  UNL1        0.0660
     34 H           3.1620   -2.5854    0.0000 H       1  UNL1        0.0660
@<TRIPOS>BOND
     1     1     9    1
     2     1    19    1
     3     2    15    1
     4     2    20    1
     5     3    13    1
     6     3    27    1
     7     4    14    1
     8     4    28    1
     9     5     6   ar
    10     5     7   ar
    11     5     9   ar
    12     6     8   ar
    13     6    13   ar
    14     7    10   ar
    15     7    12   ar
    16     8    11   ar
    17     8    16   ar
    18     9    14   ar
    19    10    11   ar
    20    10    21    1
    21    11    22    1
    22    12    15   ar
    23    12    23    1
    24    13    17   ar
    25    14    15   ar
    26    16    18   ar
    27    16    24    1
    28    17    18   ar
    29    17    25    1
    30    18    26    1
    31    19    29    1
    32    19    30    1
    33    19    31    1
    34    20    32    1
    35    20    33    1
    36    20    34    1
