@<TRIPOS>MOLECULE
IMPHY003190
 32 32 0 0 0
SMALL
GASTEIGER

@<TRIPOS>ATOM
      1 O           2.8660    0.5000    0.0000 O.3     1  UNL1       -0.4947
      2 O           6.3301   -1.5000    0.0000 O.3     1  UNL1       -0.4914
      3 O           4.5981   -2.5000    0.0000 O.3     1  UNL1       -0.4913
      4 O           6.3301    1.5000    0.0000 O.2     1  UNL1       -0.2974
      5 C           4.5981    0.5000    0.0000 C.ar    1  UNL1        0.0050
      6 C           4.5981    1.5000    0.0000 C.3     1  UNL1        0.0343
      7 C           3.7320    0.0000    0.0000 C.ar    1  UNL1        0.1274
      8 C           5.4641    0.0000    0.0000 C.ar    1  UNL1       -0.0093
      9 C           5.4641   -1.0000    0.0000 C.ar    1  UNL1        0.1620
     10 C           4.5981   -1.5000    0.0000 C.ar    1  UNL1        0.1650
     11 C           3.7320   -1.0000    0.0000 C.ar    1  UNL1        0.0257
     12 C           5.4641    2.0000    0.0000 C.2     1  UNL1        0.1347
     13 C           5.4641    3.0000    0.0000 C.3     1  UNL1       -0.0057
     14 C           2.0000    0.0000    0.0000 C.3     1  UNL1        0.0788
     15 C           7.1962   -1.0000    0.0000 C.3     1  UNL1        0.0790
     16 C           3.7320   -3.0000    0.0000 C.3     1  UNL1        0.0790
     17 H           4.3860    2.0826    0.0000 H       1  UNL1        0.0391
     18 H           3.9875    1.3923    0.0000 H       1  UNL1        0.0391
     19 H           6.0010    0.3100    0.0000 H       1  UNL1        0.0659
     20 H           3.1951   -1.3100    0.0000 H       1  UNL1        0.0692
     21 H           6.0841    3.0000    0.0000 H       1  UNL1        0.0306
     22 H           5.4641    3.6200    0.0000 H       1  UNL1        0.0306
     23 H           4.8441    3.0000    0.0000 H       1  UNL1        0.0306
     24 H           1.6900    0.5369    0.0000 H       1  UNL1        0.0660
     25 H           1.4631   -0.3100    0.0000 H       1  UNL1        0.0660
     26 H           2.3100   -0.5369    0.0000 H       1  UNL1        0.0660
     27 H           7.5062   -1.5369    0.0000 H       1  UNL1        0.0660
     28 H           7.7331   -0.6900    0.0000 H       1  UNL1        0.0660
     29 H           6.8862   -0.4631    0.0000 H       1  UNL1        0.0660
     30 H           3.4220   -2.4631    0.0000 H       1  UNL1        0.0660
     31 H           3.1951   -3.3100    0.0000 H       1  UNL1        0.0660
     32 H           4.0420   -3.5369    0.0000 H       1  UNL1        0.0660
@<TRIPOS>BOND
     1     1     7    1
     2     1    14    1
     3     2     9    1
     4     2    15    1
     5     3    10    1
     6     3    16    1
     7     4    12    2
     8     5     6    1
     9     5     7   ar
    10     5     8   ar
    11     6    12    1
    12     6    17    1
    13     6    18    1
    14     7    11   ar
    15     8     9   ar
    16     8    19    1
    17     9    10   ar
    18    10    11   ar
    19    11    20    1
    20    12    13    1
    21    13    21    1
    22    13    22    1
    23    13    23    1
    24    14    24    1
    25    14    25    1
    26    14    26    1
    27    15    27    1
    28    15    28    1
    29    15    29    1
    30    16    30    1
    31    16    31    1
    32    16    32    1
