@<TRIPOS>MOLECULE
IMPHY008801
 59 61 0 0 0
SMALL
GASTEIGER

@<TRIPOS>ATOM
      1 O           6.3580   -0.5176    0.0000 O.2     1  UNL1       -0.4469
      2 O           4.5981    2.5171    0.0000 O.3     1  UNL1       -0.4905
      3 O           4.5981   -1.4829    0.0000 O.3     1  UNL1       -0.4884
      4 O           8.1282    1.5412    0.0000 O.3     1  UNL1       -0.4883
      5 O           2.8660    1.5171    0.0000 O.3     1  UNL1       -0.4884
      6 O           2.8660   -0.4829    0.0000 O.3     1  UNL1       -0.4883
      7 O           7.2564   -2.0037    0.0000 O.3     1  UNL1       -0.4943
      8 O           6.3465    2.5517    0.0000 O.2     1  UNL1       -0.2830
      9 O          10.7282   -0.0171    0.0000 O.3     1  UNL1       -0.4914
     10 O          10.7205   -2.0171    0.0000 O.3     1  UNL1       -0.4913
     11 C           5.4641    1.0171    0.0000 C.ar    1  UNL1        0.1167
     12 C           5.4641    0.0171    0.0000 C.ar    1  UNL1        0.1884
     13 C           7.2641   -0.0037    0.0000 C.ar    1  UNL1        0.1846
     14 C           4.5981    1.5171    0.0000 C.ar    1  UNL1        0.1799
     15 C           4.5981   -0.4829    0.0000 C.ar    1  UNL1        0.2088
     16 C           7.2641    1.0379    0.0000 C.ar    1  UNL1        0.2108
     17 C           6.3580    1.5517    0.0000 C.ar    1  UNL1        0.2383
     18 C           8.1282   -0.5071    0.0000 C.ar    1  UNL1        0.0663
     19 C           3.7320    1.0171    0.0000 C.ar    1  UNL1        0.2082
     20 C           3.7320    0.0171    0.0000 C.ar    1  UNL1        0.2110
     21 C           8.1244   -1.5071    0.0000 C.ar    1  UNL1        0.1346
     22 C           8.9962   -0.0104    0.0000 C.ar    1  UNL1       -0.0020
     23 C           9.8602   -0.5138    0.0000 C.ar    1  UNL1        0.1624
     24 C           8.9884   -2.0104    0.0000 C.ar    1  UNL1        0.0261
     25 C           9.8564   -1.5138    0.0000 C.ar    1  UNL1        0.1650
     26 C           3.7320    3.0171    0.0000 C.3     1  UNL1        0.0790
     27 C           3.7320   -1.9829    0.0000 C.3     1  UNL1        0.0791
     28 C           8.1244    2.5412    0.0000 C.3     1  UNL1        0.0791
     29 C           2.0000    1.0171    0.0000 C.3     1  UNL1        0.0791
     30 C           2.0000    0.0171    0.0000 C.3     1  UNL1        0.0791
     31 C           7.2526   -3.0037    0.0000 C.3     1  UNL1        0.0788
     32 C          11.5923   -0.5204    0.0000 C.3     1  UNL1        0.0790
     33 C          10.7166   -3.0171    0.0000 C.3     1  UNL1        0.0790
     34 H           8.9985    0.6096    0.0000 H       1  UNL1        0.0663
     35 H           8.9860   -2.6304    0.0000 H       1  UNL1        0.0692
     36 H           4.0420    3.5540    0.0000 H       1  UNL1        0.0660
     37 H           3.1951    3.3271    0.0000 H       1  UNL1        0.0660
     38 H           3.4220    2.4801    0.0000 H       1  UNL1        0.0660
     39 H           3.4220   -1.4460    0.0000 H       1  UNL1        0.0660
     40 H           3.1951   -2.2929    0.0000 H       1  UNL1        0.0660
     41 H           4.0420   -2.5199    0.0000 H       1  UNL1        0.0660
     42 H           8.7443    2.5436    0.0000 H       1  UNL1        0.0660
     43 H           8.1220    3.1612    0.0000 H       1  UNL1        0.0660
     44 H           7.5044    2.5388    0.0000 H       1  UNL1        0.0660
     45 H           1.6900    1.5540    0.0000 H       1  UNL1        0.0660
     46 H           1.4631    0.7071    0.0000 H       1  UNL1        0.0660
     47 H           2.3100    0.4801    0.0000 H       1  UNL1        0.0660
     48 H           2.3100    0.5540    0.0000 H       1  UNL1        0.0660
     49 H           1.4631    0.3271    0.0000 H       1  UNL1        0.0660
     50 H           1.6900   -0.5199    0.0000 H       1  UNL1        0.0660
     51 H           6.6326   -3.0013    0.0000 H       1  UNL1        0.0660
     52 H           7.2502   -3.6237    0.0000 H       1  UNL1        0.0660
     53 H           7.8725   -3.0061    0.0000 H       1  UNL1        0.0660
     54 H          11.2802   -1.0562    0.0000 H       1  UNL1        0.0660
     55 H          12.1280   -0.8325    0.0000 H       1  UNL1        0.0660
     56 H          11.9043    0.0153    0.0000 H       1  UNL1        0.0660
     57 H          10.0966   -3.0147    0.0000 H       1  UNL1        0.0660
     58 H          10.7142   -3.6371    0.0000 H       1  UNL1        0.0660
     59 H          11.3366   -3.0195    0.0000 H       1  UNL1        0.0660
@<TRIPOS>BOND
     1     1    12   ar
     2     1    13   ar
     3     2    14    1
     4     2    26    1
     5     3    15    1
     6     3    27    1
     7     4    16    1
     8     4    28    1
     9     5    19    1
    10     5    29    1
    11     6    20    1
    12     6    30    1
    13     7    21    1
    14     7    31    1
    15     8    17    2
    16     9    23    1
    17     9    32    1
    18    10    25    1
    19    10    33    1
    20    11    12   ar
    21    11    14   ar
    22    11    17   ar
    23    12    15   ar
    24    13    16   ar
    25    13    18    1
    26    14    19   ar
    27    15    20   ar
    28    16    17   ar
    29    18    21   ar
    30    18    22   ar
    31    19    20   ar
    32    21    24   ar
    33    22    23   ar
    34    22    34    1
    35    23    25   ar
    36    24    25   ar
    37    24    35    1
    38    26    36    1
    39    26    37    1
    40    26    38    1
    41    27    39    1
    42    27    40    1
    43    27    41    1
    44    28    42    1
    45    28    43    1
    46    28    44    1
    47    29    45    1
    48    29    46    1
    49    29    47    1
    50    30    48    1
    51    30    49    1
    52    30    50    1
    53    31    51    1
    54    31    52    1
    55    31    53    1
    56    32    54    1
    57    32    55    1
    58    32    56    1
    59    33    57    1
    60    33    58    1
    61    33    59    1
