@<TRIPOS>MOLECULE
IMPHY016042
 34 35 0 0 0
SMALL
GASTEIGER

@<TRIPOS>ATOM
      1 O           2.8131   -1.4071    0.0000 O.3     1  UNL1       -0.4645
      2 O           3.7310   -2.8760    0.0000 O.2     1  UNL1       -0.2512
      3 C           6.2463    0.9967    0.0000 C.3     1  UNL1       -0.0289
      4 C           4.8473    0.9879    0.0000 C.3     1  UNL1       -0.0294
      5 C           5.1061    1.9538    0.0000 C.3     1  UNL1       -0.0353
      6 C           4.3695    2.9364    0.0000 C.3     1  UNL1       -0.0460
      7 C           3.6263    0.1222    0.0000 C.3     1  UNL1       -0.0034
      8 C           3.0729    1.6427    0.0000 C.3     1  UNL1       -0.0493
      9 C           2.7973    0.6814    0.0000 C.3     1  UNL1       -0.0466
     10 C           7.1123    1.4967    0.0000 C.3     1  UNL1       -0.0593
     11 C           6.7463    0.1307    0.0000 C.3     1  UNL1       -0.0593
     12 C           3.6612   -0.8772    0.0000 C.3     1  UNL1        0.0955
     13 C           2.8481   -2.4065    0.0000 C.2     1  UNL1        0.3040
     14 C           2.0000   -2.9364    0.0000 C.3     1  UNL1        0.0332
     15 H           4.6273    0.1668    0.0000 H       1  UNL1        0.0310
     16 H           5.3261    2.7748    0.0000 H       1  UNL1        0.0306
     17 H           4.6873    3.4688    0.0000 H       1  UNL1        0.0271
     18 H           3.7564    3.0284    0.0000 H       1  UNL1        0.0271
     19 H           3.0840   -0.1784    0.0000 H       1  UNL1        0.0336
     20 H           3.0678    2.2626    0.0000 H       1  UNL1        0.0268
     21 H           2.4586    1.7264    0.0000 H       1  UNL1        0.0268
     22 H           2.2224    0.9137    0.0000 H       1  UNL1        0.0269
     23 H           2.5062    0.1340    0.0000 H       1  UNL1        0.0269
     24 H           7.4223    0.9598    0.0000 H       1  UNL1        0.0235
     25 H           7.6492    1.8067    0.0000 H       1  UNL1        0.0235
     26 H           6.8023    2.0336    0.0000 H       1  UNL1        0.0235
     27 H           6.2093   -0.1793    0.0000 H       1  UNL1        0.0235
     28 H           7.0563   -0.4063    0.0000 H       1  UNL1        0.0235
     29 H           7.2832    0.4407    0.0000 H       1  UNL1        0.0235
     30 H           3.8934   -1.4520    0.0000 H       1  UNL1        0.0700
     31 H           4.2676   -0.7483    0.0000 H       1  UNL1        0.0700
     32 H           1.6714   -2.4106    0.0000 H       1  UNL1        0.0342
     33 H           1.4742   -3.2650    0.0000 H       1  UNL1        0.0342
     34 H           2.3286   -3.4622    0.0000 H       1  UNL1        0.0342
@<TRIPOS>BOND
     1     1    12    1
     2     1    13    1
     3     2    13    2
     4     3     4    1
     5     3     5    1
     6     3    10    1
     7     3    11    1
     8     4     6    1
     9     4     7    1
    10     4    15    1
    11     5     6    1
    12     5     8    1
    13     5    16    1
    14     6    17    1
    15     6    18    1
    16     7     9    1
    17     7    12    1
    18     7    19    1
    19     8     9    1
    20     8    20    1
    21     8    21    1
    22     9    22    1
    23     9    23    1
    24    10    24    1
    25    10    25    1
    26    10    26    1
    27    11    27    1
    28    11    28    1
    29    11    29    1
    30    12    30    1
    31    12    31    1
    32    13    14    1
    33    14    32    1
    34    14    33    1
    35    14    34    1
