@<TRIPOS>MOLECULE
IMPHY008157
 59 65 0 0 0
SMALL
GASTEIGER

@<TRIPOS>ATOM
      1 O           4.8113   -2.7246    0.0000 O.2     1  UNL1       -0.2973
      2 O           5.2880    3.3786    0.0000 O.3     1  UNL1       -0.4911
      3 O           3.8123   -4.1683    0.0000 O.3     1  UNL1       -0.4526
      4 O           3.5221    4.4164    0.0000 O.3     1  UNL1       -0.4914
      5 O           5.4815   -4.4606    0.0000 O.3     1  UNL1       -0.4526
      6 N           5.2662    0.3471    0.0000 N.3     1  UNL1       -0.2844
      7 C           4.4002   -0.1529    0.0000 C.3     1  UNL1        0.0619
      8 C           3.5342    0.3471    0.0000 C.3     1  UNL1        0.0134
      9 C           2.9995   -0.5468    0.0000 C.3     1  UNL1       -0.0149
     10 C           5.2662    1.3471    0.0000 C.3     1  UNL1        0.0409
     11 C           3.5862    1.0545    0.0000 C.3     1  UNL1       -0.0266
     12 C           4.9349   -1.0468    0.0000 C.3     1  UNL1        0.0291
     13 C           3.5342    1.3471    0.0000 C.ar    1  UNL1       -0.0333
     14 C           3.4687   -1.6195    0.0000 C.3     1  UNL1        0.0120
     15 C           4.4002    1.8471    0.0000 C.ar    1  UNL1        0.0185
     16 C           4.3842   -1.1944    0.0000 C.ar    1  UNL1       -0.0193
     17 C           6.1762   -0.1597    0.0000 C.3     1  UNL1        0.0043
     18 C           2.0000   -0.5774    0.0000 C.3     1  UNL1       -0.0585
     19 C           4.4657   -1.7862    0.0000 C.2     1  UNL1        0.1360
     20 C           6.1843   -1.2013    0.0000 C.3     1  UNL1       -0.0144
     21 C           5.2822   -1.7221    0.0000 C.ar    1  UNL1       -0.0375
     22 C           2.6242    1.8540    0.0000 C.ar    1  UNL1       -0.0542
     23 C           4.4163    2.8886    0.0000 C.ar    1  UNL1        0.1664
     24 C           3.8201   -2.1212    0.0000 C.ar    1  UNL1       -0.0109
     25 C           5.8319   -2.6575    0.0000 C.ar    1  UNL1       -0.0126
     26 C           3.5182    3.4164    0.0000 C.ar    1  UNL1        0.1618
     27 C           2.6162    2.8956    0.0000 C.ar    1  UNL1       -0.0160
     28 C           4.3002   -3.2423    0.0000 C.ar    1  UNL1        0.1666
     29 C           5.3373   -3.4239    0.0000 C.ar    1  UNL1        0.1665
     30 C           4.5409   -4.9197    0.0000 C.3     1  UNL1        0.2332
     31 C           5.2996    4.3785    0.0000 C.3     1  UNL1        0.0790
     32 C           2.6580    4.9197    0.0000 C.3     1  UNL1        0.0790
     33 H           2.9366    0.5122    0.0000 H       1  UNL1        0.0376
     34 H           5.8032    1.6571    0.0000 H       1  UNL1        0.0514
     35 H           3.5874    1.6745    0.0000 H       1  UNL1        0.0289
     36 H           2.9758    1.1635    0.0000 H       1  UNL1        0.0289
     37 H           5.4006   -1.4560    0.0000 H       1  UNL1        0.0363
     38 H           5.4113   -0.6500    0.0000 H       1  UNL1        0.0363
     39 H           2.8636   -1.7546    0.0000 H       1  UNL1        0.0347
     40 H           3.4855   -2.2393    0.0000 H       1  UNL1        0.0347
     41 H           6.7879   -0.2611    0.0000 H       1  UNL1        0.0430
     42 H           6.3808    0.4256    0.0000 H       1  UNL1        0.0430
     43 H           1.9810    0.0423    0.0000 H       1  UNL1        0.0235
     44 H           1.3803   -0.5963    0.0000 H       1  UNL1        0.0235
     45 H           2.0189   -1.1971    0.0000 H       1  UNL1        0.0235
     46 H           6.3978   -1.7834    0.0000 H       1  UNL1        0.0326
     47 H           6.7943   -1.0905    0.0000 H       1  UNL1        0.0326
     48 H           2.0909    1.5378    0.0000 H       1  UNL1        0.0622
     49 H           3.2016   -2.0772    0.0000 H       1  UNL1        0.0659
     50 H           6.4518   -2.6705    0.0000 H       1  UNL1        0.0658
     51 H           2.0780    3.2035    0.0000 H       1  UNL1        0.0655
     52 H           4.0529   -5.3022    0.0000 H       1  UNL1        0.1166
     53 H           4.8699   -5.4452    0.0000 H       1  UNL1        0.1166
     54 H           5.9196    4.3714    0.0000 H       1  UNL1        0.0660
     55 H           5.3068    4.9985    0.0000 H       1  UNL1        0.0660
     56 H           4.6796    4.3857    0.0000 H       1  UNL1        0.0660
     57 H           2.9701    5.4555    0.0000 H       1  UNL1        0.0660
     58 H           2.1223    5.2318    0.0000 H       1  UNL1        0.0660
     59 H           2.3459    4.3840    0.0000 H       1  UNL1        0.0660
@<TRIPOS>BOND
     1     1    19    2
     2     2    23    1
     3     2    31    1
     4     3    28    1
     5     3    30    1
     6     4    26    1
     7     4    32    1
     8     5    29    1
     9     5    30    1
    10     6     7    1
    11     6    10    1
    12     6    17    1
    13     7     8    1
    14     7    12    1
    15     7    16    1
    16     8     9    1
    17     8    13    1
    18     8    33    1
    19     9    11    1
    20     9    14    1
    21     9    18    1
    22    10    11    1
    23    10    15    1
    24    10    34    1
    25    11    35    1
    26    11    36    1
    27    12    19    1
    28    12    37    1
    29    12    38    1
    30    13    15   ar
    31    13    22   ar
    32    14    19    1
    33    14    39    1
    34    14    40    1
    35    15    23   ar
    36    16    21   ar
    37    16    24   ar
    38    17    20    1
    39    17    41    1
    40    17    42    1
    41    18    43    1
    42    18    44    1
    43    18    45    1
    44    20    21    1
    45    20    46    1
    46    20    47    1
    47    21    25   ar
    48    22    27   ar
    49    22    48    1
    50    23    26   ar
    51    24    28   ar
    52    24    49    1
    53    25    29   ar
    54    25    50    1
    55    26    27   ar
    56    27    51    1
    57    28    29   ar
    58    30    52    1
    59    30    53    1
    60    31    54    1
    61    31    55    1
    62    31    56    1
    63    32    57    1
    64    32    58    1
    65    32    59    1
