@<TRIPOS>MOLECULE
IMPHY007362
 21 22 0 0 0
SMALL
GASTEIGER

@<TRIPOS>ATOM
      1 N           2.0000   -0.1224    0.0000 N.ar    1  UNL1       -0.2630
      2 C           4.6783   -0.4271    0.0000 C.3     1  UNL1       -0.0167
      3 C           5.2619    0.3776    0.0000 C.3     1  UNL1       -0.0424
      4 C           4.6783    1.1824    0.0000 C.3     1  UNL1       -0.0268
      5 C           3.7320   -0.1224    0.0000 C.ar    1  UNL1       -0.0233
      6 C           3.7320    0.8776    0.0000 C.ar    1  UNL1       -0.0410
      7 C           4.9889   -1.3776    0.0000 C.3     1  UNL1       -0.0583
      8 C           2.8660   -0.6224    0.0000 C.ar    1  UNL1        0.0312
      9 C           2.8660    1.3776    0.0000 C.ar    1  UNL1       -0.0401
     10 C           2.0000    0.8776    0.0000 C.ar    1  UNL1        0.0278
     11 H           5.2908   -0.5233    0.0000 H       1  UNL1        0.0347
     12 H           5.7227   -0.0371    0.0000 H       1  UNL1        0.0274
     13 H           5.7227    0.7924    0.0000 H       1  UNL1        0.0274
     14 H           5.2156    1.4916    0.0000 H       1  UNL1        0.0313
     15 H           4.4272    1.7493    0.0000 H       1  UNL1        0.0313
     16 H           4.3996   -1.5702    0.0000 H       1  UNL1        0.0236
     17 H           5.1815   -1.9670    0.0000 H       1  UNL1        0.0236
     18 H           5.5783   -1.1850    0.0000 H       1  UNL1        0.0236
     19 H           2.8660   -1.2424    0.0000 H       1  UNL1        0.0832
     20 H           2.8660    1.9976    0.0000 H       1  UNL1        0.0635
     21 H           1.4631    1.1876    0.0000 H       1  UNL1        0.0829
@<TRIPOS>BOND
     1     1     8   ar
     2     1    10   ar
     3     2     3    1
     4     2     5    1
     5     2     7    1
     6     2    11    1
     7     3     4    1
     8     3    12    1
     9     3    13    1
    10     4     6    1
    11     4    14    1
    12     4    15    1
    13     5     6   ar
    14     5     8   ar
    15     6     9   ar
    16     7    16    1
    17     7    17    1
    18     7    18    1
    19     8    19    1
    20     9    10   ar
    21     9    20    1
    22    10    21    1
