@<TRIPOS>MOLECULE
IMPHY014889
 50 55 0 0 0
SMALL
GASTEIGER

@<TRIPOS>ATOM
      1 O           6.1992    2.3767    0.0000 O.3     1  UNL1       -0.4853
      2 N           4.5460   -1.0854    0.0000 N.ar    1  UNL1       -0.3335
      3 C           3.1531    0.9272    0.0000 C.3     1  UNL1       -0.0106
      4 C           4.4248    1.7219    0.0000 C.3     1  UNL1       -0.0019
      5 C           3.2148   -0.4705    0.0000 C.3     1  UNL1        0.0439
      6 C           4.1660    2.6878    0.0000 C.3     1  UNL1        0.1085
      7 C           4.9026    3.6704    0.0000 C.3     1  UNL1       -0.0058
      8 C           2.3760    1.5565    0.0000 C.3     1  UNL1       -0.0439
      9 C           5.6458    0.8562    0.0000 C.ar    1  UNL1        0.0222
     10 C           2.7343    2.4901    0.0000 C.3     1  UNL1       -0.0128
     11 C           5.7024   -0.1839    0.0000 C.ar    1  UNL1        0.0576
     12 C           6.4749    1.4154    0.0000 C.ar    1  UNL1        0.1296
     13 C           2.7739   -1.3680    0.0000 C.3     1  UNL1       -0.0413
     14 C           2.2170   -0.5374    0.0000 C.3     1  UNL1       -0.0413
     15 C           6.6351   -0.6477    0.0000 C.ar    1  UNL1        0.0084
     16 C           3.9072    3.6537    0.0000 C.3     1  UNL1       -0.0249
     17 C           5.2632   -1.8364    0.0000 C.ar    1  UNL1        0.0506
     18 C           6.2796   -1.6235    0.0000 C.ar    1  UNL1        0.0076
     19 C           7.4180    0.9733    0.0000 C.ar    1  UNL1       -0.0078
     20 C           7.4987   -0.0652    0.0000 C.ar    1  UNL1       -0.0456
     21 C           4.9102   -2.8589    0.0000 C.ar    1  UNL1       -0.0376
     22 C           7.0135   -2.4182    0.0000 C.ar    1  UNL1       -0.0520
     23 C           8.2405    1.5420    0.0000 C.3     1  UNL1       -0.0362
     24 C           5.6254   -3.6704    0.0000 C.ar    1  UNL1       -0.0598
     25 C           6.6841   -3.4486    0.0000 C.ar    1  UNL1       -0.0611
     26 H           3.1086    0.0784    0.0000 H       1  UNL1        0.0329
     27 H           3.7314    2.2135    0.0000 H       1  UNL1        0.0355
     28 H           4.5848    4.2028    0.0000 H       1  UNL1        0.0309
     29 H           5.5157    3.7624    0.0000 H       1  UNL1        0.0309
     30 H           2.0383    1.0366    0.0000 H       1  UNL1        0.0270
     31 H           1.8235    1.8380    0.0000 H       1  UNL1        0.0270
     32 H           2.1265    2.6125    0.0000 H       1  UNL1        0.0304
     33 H           2.7534    3.1098    0.0000 H       1  UNL1        0.0304
     34 H           3.3304   -1.6414    0.0000 H       1  UNL1        0.0252
     35 H           2.5006   -1.9245    0.0000 H       1  UNL1        0.0252
     36 H           2.2174   -1.0947    0.0000 H       1  UNL1        0.0252
     37 H           2.2586   -1.1560    0.0000 H       1  UNL1        0.0252
     38 H           1.5984   -0.5790    0.0000 H       1  UNL1        0.0252
     39 H           2.1755    0.0812    0.0000 H       1  UNL1        0.0252
     40 H           3.3083    3.4932    0.0000 H       1  UNL1        0.0268
     41 H           3.7467    4.2526    0.0000 H       1  UNL1        0.0268
     42 H           4.5060    3.8142    0.0000 H       1  UNL1        0.0268
     43 H           8.0570   -0.3349    0.0000 H       1  UNL1        0.0628
     44 H           4.3019   -2.9790    0.0000 H       1  UNL1        0.0638
     45 H           7.6188   -2.2841    0.0000 H       1  UNL1        0.0624
     46 H           7.8879    2.0520    0.0000 H       1  UNL1        0.0279
     47 H           8.7505    1.8946    0.0000 H       1  UNL1        0.0279
     48 H           8.5931    1.0320    0.0000 H       1  UNL1        0.0279
     49 H           5.4298   -4.2588    0.0000 H       1  UNL1        0.0618
     50 H           7.0994   -3.9089    0.0000 H       1  UNL1        0.0618
@<TRIPOS>BOND
     1     1     6    1
     2     1    12    1
     3     2     5    1
     4     2    11   ar
     5     2    17   ar
     6     3     4    1
     7     3     5    1
     8     3     8    1
     9     3    26    1
    10     4     7    1
    11     4     9    1
    12     4    27    1
    13     5    13    1
    14     5    14    1
    15     6     7    1
    16     6    10    1
    17     6    16    1
    18     7    28    1
    19     7    29    1
    20     8    10    1
    21     8    30    1
    22     8    31    1
    23     9    11   ar
    24     9    12   ar
    25    10    32    1
    26    10    33    1
    27    11    15   ar
    28    12    19   ar
    29    13    34    1
    30    13    35    1
    31    13    36    1
    32    14    37    1
    33    14    38    1
    34    14    39    1
    35    15    18   ar
    36    15    20   ar
    37    16    40    1
    38    16    41    1
    39    16    42    1
    40    17    18   ar
    41    17    21   ar
    42    18    22   ar
    43    19    20   ar
    44    19    23    1
    45    20    43    1
    46    21    24   ar
    47    21    44    1
    48    22    25   ar
    49    22    45    1
    50    23    46    1
    51    23    47    1
    52    23    48    1
    53    24    25   ar
    54    24    49    1
    55    25    50    1
