@<TRIPOS>MOLECULE
IMPHY006815
 44 48 0 0 0
SMALL
GASTEIGER

@<TRIPOS>ATOM
      1 O           4.5043    2.3699    0.0000 O.3     1  UNL1       -0.3929
      2 N           7.7915   -0.7948    0.0000 N.3     1  UNL1       -0.2898
      3 N           4.4698   -0.3066    0.0000 N.ar    1  UNL1       -0.3362
      4 C           6.5198   -0.0001    0.0000 C.3     1  UNL1        0.0520
      5 C           6.7786    0.9658    0.0000 C.3     1  UNL1        0.0060
      6 C           6.0420    1.9484    0.0000 C.3     1  UNL1       -0.0233
      7 C           4.7454    0.6547    0.0000 C.3     1  UNL1        0.0644
      8 C           5.2988   -0.8658    0.0000 C.ar    1  UNL1        0.0406
      9 C           5.0223   -1.8206    0.0000 C.ar    1  UNL1       -0.0162
     10 C           8.2103    0.7681    0.0000 C.2     1  UNL1       -0.0546
     11 C           8.5686   -0.1654    0.0000 C.3     1  UNL1        0.0210
     12 C           7.5372   -2.3632    0.0000 C.3     1  UNL1        0.0039
     13 C           6.1144   -2.8584    0.0000 C.3     1  UNL1       -0.0125
     14 C           3.6880   -0.9206    0.0000 C.ar    1  UNL1        0.0499
     15 C           4.0288   -1.8545    0.0000 C.ar    1  UNL1        0.0034
     16 C           4.1297    1.4427    0.0000 C.3     1  UNL1        0.0655
     17 C           8.7549    1.6068    0.0000 C.2     1  UNL1       -0.0863
     18 C           2.6710   -0.7260    0.0000 C.ar    1  UNL1       -0.0376
     19 C           3.3762   -2.6584    0.0000 C.ar    1  UNL1       -0.0523
     20 C           2.0000   -1.5146    0.0000 C.ar    1  UNL1       -0.0598
     21 C           8.3009    2.4978    0.0000 C.3     1  UNL1       -0.0465
     22 C           2.3550   -2.4874    0.0000 C.ar    1  UNL1       -0.0611
     23 H           7.2084    0.4982    0.0000 H       1  UNL1        0.0527
     24 H           6.7832    0.3458    0.0000 H       1  UNL1        0.0367
     25 H           6.3598    2.4808    0.0000 H       1  UNL1        0.0290
     26 H           5.4289    2.0404    0.0000 H       1  UNL1        0.0290
     27 H           4.1368    0.5364    0.0000 H       1  UNL1        0.0556
     28 H           8.9063   -0.6854    0.0000 H       1  UNL1        0.0473
     29 H           9.1211    0.1160    0.0000 H       1  UNL1        0.0473
     30 H           7.6419   -2.9742    0.0000 H       1  UNL1        0.0430
     31 H           8.1572   -2.3604    0.0000 H       1  UNL1        0.0430
     32 H           5.6217   -3.2348    0.0000 H       1  UNL1        0.0326
     33 H           6.4082   -3.4044    0.0000 H       1  UNL1        0.0326
     34 H           3.6039    1.7712    0.0000 H       1  UNL1        0.0578
     35 H           3.7149    0.9819    0.0000 H       1  UNL1        0.0578
     36 H           9.3741    1.5744    0.0000 H       1  UNL1        0.0569
     37 H           2.4652   -0.1412    0.0000 H       1  UNL1        0.0638
     38 H           3.5955   -3.2383    0.0000 H       1  UNL1        0.0624
     39 H           4.1226    2.8584    0.0000 H       1  UNL1        0.2095
     40 H           1.3897   -1.4052    0.0000 H       1  UNL1        0.0618
     41 H           8.8534    2.7793    0.0000 H       1  UNL1        0.0272
     42 H           8.0195    3.0502    0.0000 H       1  UNL1        0.0272
     43 H           7.7485    2.2164    0.0000 H       1  UNL1        0.0272
     44 H           1.9587   -2.9642    0.0000 H       1  UNL1        0.0618
@<TRIPOS>BOND
     1     1    16    1
     2     1    39    1
     3     2     4    1
     4     2    11    1
     5     2    12    1
     6     3     7    1
     7     3     8   ar
     8     3    14   ar
     9     4     6    1
    10     4     8    1
    11     4    23    1
    12     5     6    1
    13     5     7    1
    14     5    10    1
    15     5    24    1
    16     6    25    1
    17     6    26    1
    18     7    16    1
    19     7    27    1
    20     8     9   ar
    21     9    13    1
    22     9    15   ar
    23    10    11    1
    24    10    17    2
    25    11    28    1
    26    11    29    1
    27    12    13    1
    28    12    30    1
    29    12    31    1
    30    13    32    1
    31    13    33    1
    32    14    15   ar
    33    14    18   ar
    34    15    19   ar
    35    16    34    1
    36    16    35    1
    37    17    21    1
    38    17    36    1
    39    18    20   ar
    40    18    37    1
    41    19    22   ar
    42    19    38    1
    43    20    22   ar
    44    20    40    1
    45    21    41    1
    46    21    42    1
    47    21    43    1
    48    22    44    1
