@<TRIPOS>MOLECULE
IMPHY011155
 54 57 0 0 0
SMALL
GASTEIGER

@<TRIPOS>ATOM
      1 O           5.9597   -1.8768    0.0000 O.3     1  UNL1       -0.4536
      2 O           8.4515   -1.4786    0.0000 O.3     1  UNL1       -0.3758
      3 O           3.1444    1.1518    0.0000 O.3     1  UNL1       -0.4596
      4 O           5.6809   -3.6369    0.0000 O.2     1  UNL1       -0.2505
      5 O           2.0000    2.5178    0.0000 O.2     1  UNL1       -0.2505
      6 N           5.6452    0.1198    0.0000 N.3     1  UNL1       -0.2891
      7 C           5.8678   -0.8551    0.0000 C.3     1  UNL1        0.0532
      8 C           6.7687   -1.2890    0.0000 C.3     1  UNL1        0.1554
      9 C           4.6549    0.2063    0.0000 C.3     1  UNL1        0.0479
     10 C           5.0131   -1.3628    0.0000 C.3     1  UNL1       -0.0320
     11 C           4.2650   -0.7081    0.0000 C.3     1  UNL1       -0.0324
     12 C           7.6697   -0.8551    0.0000 C.3     1  UNL1        0.0995
     13 C           7.5777   -1.8768    0.0000 C.3     1  UNL1        0.0038
     14 C           6.2687    0.9016    0.0000 C.3     1  UNL1       -0.0002
     15 C           4.1405    1.0639    0.0000 C.3     1  UNL1        0.1192
     16 C           7.8922    0.1198    0.0000 C.3     1  UNL1       -0.0216
     17 C           7.2687    0.9016    0.0000 C.3     1  UNL1       -0.0377
     18 C           7.2687   -2.8279    0.0000 C.3     1  UNL1        0.0574
     19 C           4.5320    1.9841    0.0000 C.3     1  UNL1       -0.0015
     20 C           6.2687   -2.8279    0.0000 C.2     1  UNL1        0.3107
     21 C           3.7778    2.6407    0.0000 C.3     1  UNL1        0.0570
     22 C           7.8565   -3.6369    0.0000 C.3     1  UNL1       -0.0522
     23 C           2.9202    2.1264    0.0000 C.2     1  UNL1        0.3104
     24 C           3.8657    3.6369    0.0000 C.3     1  UNL1       -0.0522
     25 C           9.3824   -1.1133    0.0000 C.3     1  UNL1        0.0370
     26 H           6.5323   -0.3252    0.0000 H       1  UNL1        0.0503
     27 H           3.8069    0.1481    0.0000 H       1  UNL1        0.0499
     28 H           4.5580   -1.7838    0.0000 H       1  UNL1        0.0282
     29 H           5.3839   -1.8596    0.0000 H       1  UNL1        0.0282
     30 H           3.7234   -0.4063    0.0000 H       1  UNL1        0.0282
     31 H           3.9080   -1.2150    0.0000 H       1  UNL1        0.0282
     32 H           8.2549   -0.6504    0.0000 H       1  UNL1        0.0636
     33 H           8.1441   -2.1290    0.0000 H       1  UNL1        0.0313
     34 H           7.8877   -1.3399    0.0000 H       1  UNL1        0.0313
     35 H           6.4067    1.5061    0.0000 H       1  UNL1        0.0427
     36 H           5.7101    1.1706    0.0000 H       1  UNL1        0.0427
     37 H           3.6896    0.3434    0.0000 H       1  UNL1        0.0750
     38 H           8.4508   -0.1492    0.0000 H       1  UNL1        0.0292
     39 H           8.2788    0.6045    0.0000 H       1  UNL1        0.0292
     40 H           7.8273    1.1706    0.0000 H       1  UNL1        0.0278
     41 H           7.1308    1.5061    0.0000 H       1  UNL1        0.0278
     42 H           7.8811   -2.7309    0.0000 H       1  UNL1        0.0412
     43 H           5.0740    1.6831    0.0000 H       1  UNL1        0.0309
     44 H           4.8880    2.4917    0.0000 H       1  UNL1        0.0309
     45 H           4.3528    2.8726    0.0000 H       1  UNL1        0.0412
     46 H           7.3549   -4.0013    0.0000 H       1  UNL1        0.0238
     47 H           8.2209   -4.1385    0.0000 H       1  UNL1        0.0238
     48 H           8.3581   -3.2724    0.0000 H       1  UNL1        0.0238
     49 H           4.4833    3.5824    0.0000 H       1  UNL1        0.0238
     50 H           3.9202    4.2545    0.0000 H       1  UNL1        0.0238
     51 H           3.2481    3.6914    0.0000 H       1  UNL1        0.0238
     52 H           9.6089   -1.6904    0.0000 H       1  UNL1        0.0524
     53 H           9.9595   -0.8868    0.0000 H       1  UNL1        0.0524
     54 H           9.1559   -0.5361    0.0000 H       1  UNL1        0.0524
@<TRIPOS>BOND
     1     8     1    1
     2     1    20    1
     3    12     2    1
     4     2    25    1
     5     3    15    1
     6     3    23    1
     7     4    20    2
     8     5    23    2
     9     6     7    1
    10     6     9    1
    11     6    14    1
    12     7     8    1
    13     7    10    1
    14     7    26    1
    15     8    12    1
    16     8    13    1
    17     9    11    1
    18     9    15    1
    19     9    27    1
    20    10    11    1
    21    10    28    1
    22    10    29    1
    23    11    30    1
    24    11    31    1
    25    12    16    1
    26    12    32    1
    27    13    18    1
    28    13    33    1
    29    13    34    1
    30    14    17    1
    31    14    35    1
    32    14    36    1
    33    15    19    1
    34    15    37    1
    35    16    17    1
    36    16    38    1
    37    16    39    1
    38    17    40    1
    39    17    41    1
    40    18    20    1
    41    18    22    1
    42    18    42    1
    43    19    21    1
    44    19    43    1
    45    19    44    1
    46    21    23    1
    47    21    24    1
    48    21    45    1
    49    22    46    1
    50    22    47    1
    51    22    48    1
    52    24    49    1
    53    24    50    1
    54    24    51    1
    55    25    52    1
    56    25    53    1
    57    25    54    1
