@<TRIPOS>MOLECULE
IMPHY010500
 97 102 0 0 0
SMALL
GASTEIGER

@<TRIPOS>ATOM
      1 O           6.7852    1.4350    0.0000 O.3     1  UNL1       -0.3585
      2 O           9.5679    0.5659    0.0000 O.3     1  UNL1       -0.4581
      3 O           5.1720    0.0323    0.0000 O.3     1  UNL1       -0.3888
      4 O           5.1643    2.0323    0.0000 O.3     1  UNL1       -0.3858
      5 O           8.6084    3.0891    0.0000 O.3     1  UNL1       -0.4464
      6 O           6.8896    3.7710    0.0000 O.3     1  UNL1       -0.4659
      7 O           5.3930    2.8992    0.0000 O.2     1  UNL1       -0.2475
      8 O          10.4016    2.1183    0.0000 O.2     1  UNL1       -0.2466
      9 O           6.8671   -4.1579    0.0000 O.2     1  UNL1       -0.4574
     10 O           5.0597   -3.1051    0.0000 O.2     1  UNL1       -0.2888
     11 O          10.3396    3.1432    0.0000 O.2     1  UNL1       -0.2456
     12 O           5.1350   -4.1579    0.0000 O.3     1  UNL1       -0.3313
     13 O           6.8671   -6.1579    0.0000 O.3     1  UNL1       -0.3829
     14 O           5.1350   -7.1579    0.0000 O.3     1  UNL1       -0.3864
     15 O           3.4030   -6.1579    0.0000 O.3     1  UNL1       -0.3865
     16 O          10.2146    7.1413    0.0000 O.3     1  UNL1       -0.3848
     17 O           2.5369   -4.6579    0.0000 O.3     1  UNL1       -0.3924
     18 C           7.7681    0.5423    0.0000 C.3     1  UNL1        0.0468
     19 C           6.9040    0.0390    0.0000 C.3     1  UNL1        0.0055
     20 C           7.7643    1.5423    0.0000 C.3     1  UNL1        0.0603
     21 C           6.8920   -1.0026    0.0000 C.3     1  UNL1       -0.0123
     22 C           6.8963    2.0390    0.0000 C.3     1  UNL1        0.2007
     23 C           8.6801    0.0390    0.0000 C.3     1  UNL1        0.1123
     24 C           6.0361    0.5356    0.0000 C.3     1  UNL1        0.0884
     25 C           7.7920   -1.5269    0.0000 C.3     1  UNL1       -0.0068
     26 C           7.1879    0.7437    0.0000 C.3     1  UNL1        0.0591
     27 C           6.0322    1.5356    0.0000 C.3     1  UNL1        0.1210
     28 C           8.6921   -1.0026    0.0000 C.3     1  UNL1       -0.0079
     29 C           8.6397    2.0896    0.0000 C.3     1  UNL1        0.2059
     30 C           5.9421   -1.5269    0.0000 C.3     1  UNL1        0.0198
     31 C           5.9079   -0.8251    0.0000 C.3     1  UNL1       -0.0583
     32 C           7.8046   -2.6118    0.0000 C.2     1  UNL1       -0.0237
     33 C           6.3930    2.9031    0.0000 C.2     1  UNL1        0.3423
     34 C           9.5476    1.5981    0.0000 C.2     1  UNL1        0.3491
     35 C           5.9295   -2.6118    0.0000 C.2     1  UNL1        0.1979
     36 C           6.8671   -3.1579    0.0000 C.2     1  UNL1        0.1654
     37 C           8.6744   -3.1051    0.0000 C.3     1  UNL1       -0.0397
     38 C           9.4584    3.6159    0.0000 C.2     1  UNL1        0.3328
     39 C           6.3863    4.6351    0.0000 C.3     1  UNL1        0.0818
     40 C           6.0010   -4.6579    0.0000 C.3     1  UNL1        0.2309
     41 C           9.4272    4.6154    0.0000 C.2     1  UNL1        0.0242
     42 C           6.0010   -5.6579    0.0000 C.3     1  UNL1        0.1454
     43 C           5.1350   -6.1579    0.0000 C.3     1  UNL1        0.1152
     44 C          10.2771    5.1422    0.0000 C.2     1  UNL1       -0.0353
     45 C           4.2690   -4.6579    0.0000 C.3     1  UNL1        0.1140
     46 C           4.2690   -5.6579    0.0000 C.3     1  UNL1        0.1120
     47 C          10.2459    6.1418    0.0000 C.3     1  UNL1        0.0817
     48 C           3.4030   -4.1579    0.0000 C.3     1  UNL1        0.0731
     49 C          11.1584    4.6696    0.0000 C.3     1  UNL1       -0.0406
     50 C          11.2454    6.1730    0.0000 C.3     1  UNL1       -0.0324
     51 C           9.2464    6.1105    0.0000 C.3     1  UNL1       -0.0324
     52 H           6.1696   -0.3888    0.0000 H       1  UNL1        0.0339
     53 H           8.6143    1.5456    0.0000 H       1  UNL1        0.0384
     54 H           9.4212   -0.3773    0.0000 H       1  UNL1        0.0740
     55 H           5.4980    0.8436    0.0000 H       1  UNL1        0.0623
     56 H           8.5314   -1.9462    0.0000 H       1  UNL1        0.0353
     57 H           6.5857    0.5961    0.0000 H       1  UNL1        0.0567
     58 H           7.1589    0.1244    0.0000 H       1  UNL1        0.0567
     59 H           6.0298    2.1556    0.0000 H       1  UNL1        0.0654
     60 H           8.9079   -1.5838    0.0000 H       1  UNL1        0.0307
     61 H           9.3017   -0.8894    0.0000 H       1  UNL1        0.0307
     62 H           8.0928    2.3816    0.0000 H       1  UNL1        0.0857
     63 H           5.7398   -0.9408    0.0000 H       1  UNL1        0.0352
     64 H           5.3300   -1.6259    0.0000 H       1  UNL1        0.0352
     65 H           6.0179   -0.2150    0.0000 H       1  UNL1        0.0235
     66 H           5.2977   -0.7151    0.0000 H       1  UNL1        0.0235
     67 H           5.7978   -1.4353    0.0000 H       1  UNL1        0.0235
     68 H           4.6339    0.3402    0.0000 H       1  UNL1        0.2099
     69 H           4.6286    1.7202    0.0000 H       1  UNL1        0.2100
     70 H           8.3686   -3.6444    0.0000 H       1  UNL1        0.0276
     71 H           9.2138   -3.4109    0.0000 H       1  UNL1        0.0276
     72 H           8.9803   -2.5658    0.0000 H       1  UNL1        0.0276
     73 H           6.9220    4.9472    0.0000 H       1  UNL1        0.0661
     74 H           6.0742    5.1708    0.0000 H       1  UNL1        0.0661
     75 H           5.8506    4.3230    0.0000 H       1  UNL1        0.0661
     76 H           6.0010   -4.0379    0.0000 H       1  UNL1        0.1084
     77 H           8.8808    4.9085    0.0000 H       1  UNL1        0.0689
     78 H           6.0010   -6.2779    0.0000 H       1  UNL1        0.0683
     79 H           4.5981   -6.4679    0.0000 H       1  UNL1        0.0648
     80 H           4.2690   -4.0379    0.0000 H       1  UNL1        0.0647
     81 H           3.7320   -5.3479    0.0000 H       1  UNL1        0.0647
     82 H           6.8671   -6.7779    0.0000 H       1  UNL1        0.2102
     83 H           3.8015   -3.6830    0.0000 H       1  UNL1        0.0584
     84 H           3.0044   -3.6830    0.0000 H       1  UNL1        0.0584
     85 H          10.8653    4.1232    0.0000 H       1  UNL1        0.0275
     86 H          11.7047    4.3765    0.0000 H       1  UNL1        0.0275
     87 H          11.4514    5.2159    0.0000 H       1  UNL1        0.0275
     88 H           4.5981   -7.4679    0.0000 H       1  UNL1        0.2100
     89 H           3.4030   -6.7779    0.0000 H       1  UNL1        0.2100
     90 H          11.2648    5.5533    0.0000 H       1  UNL1        0.0260
     91 H          11.8651    6.1924    0.0000 H       1  UNL1        0.0260
     92 H          11.2260    6.7927    0.0000 H       1  UNL1        0.0260
     93 H           9.2270    6.7302    0.0000 H       1  UNL1        0.0260
     94 H           8.6267    6.0911    0.0000 H       1  UNL1        0.0260
     95 H           9.2658    5.4908    0.0000 H       1  UNL1        0.0260
     96 H          10.7416    7.4679    0.0000 H       1  UNL1        0.2106
     97 H           2.0000   -4.3479    0.0000 H       1  UNL1        0.2095
@<TRIPOS>BOND
     1     1    22    1
     2     1    26    1
     3     2    23    1
     4     2    34    1
     5    24     3    1
     6     3    68    1
     7    27     4    1
     8     4    69    1
     9    29     5    1
    10     5    38    1
    11     6    33    1
    12     6    39    1
    13     7    33    2
    14     8    34    2
    15     9    36    1
    16    40     9    1
    17    10    35    2
    18    11    38    2
    19    12    40    1
    20    12    45    1
    21    42    13    1
    22    13    82    1
    23    43    14    1
    24    14    88    1
    25    46    15    1
    26    15    89    1
    27    16    47    1
    28    16    96    1
    29    17    48    1
    30    17    97    1
    31    18    19    1
    32    18    20    1
    33    18    23    1
    34    18    26    1
    35    19    21    1
    36    19    24    1
    37    19    52    1
    38    20    22    1
    39    20    29    1
    40    20    53    1
    41    21    25    1
    42    21    30    1
    43    21    31    1
    44    22    27    1
    45    22    33    1
    46    23    28    1
    47    23    54    1
    48    24    27    1
    49    24    55    1
    50    25    28    1
    51    25    32    1
    52    25    56    1
    53    26    57    1
    54    26    58    1
    55    27    59    1
    56    28    60    1
    57    28    61    1
    58    29    34    1
    59    29    62    1
    60    30    35    1
    61    30    63    1
    62    30    64    1
    63    31    65    1
    64    31    66    1
    65    31    67    1
    66    32    36    2
    67    32    37    1
    68    35    36    1
    69    37    70    1
    70    37    71    1
    71    37    72    1
    72    38    41    1
    73    39    73    1
    74    39    74    1
    75    39    75    1
    76    40    42    1
    77    40    76    1
    78    41    44    2
    79    41    77    1
    80    42    43    1
    81    42    78    1
    82    43    46    1
    83    43    79    1
    84    44    47    1
    85    44    49    1
    86    45    46    1
    87    45    48    1
    88    45    80    1
    89    46    81    1
    90    47    50    1
    91    47    51    1
    92    48    83    1
    93    48    84    1
    94    49    85    1
    95    49    86    1
    96    49    87    1
    97    50    90    1
    98    50    91    1
    99    50    92    1
   100    51    93    1
   101    51    94    1
   102    51    95    1
