@<TRIPOS>MOLECULE
IMPHY003268
 19 19 0 0 0
SMALL
GASTEIGER

@<TRIPOS>ATOM
      1 O           3.7601   -0.7694    0.0000 O.3     1  UNL1       -0.4351
      2 O           5.5202   -0.4907    0.0000 O.3     1  UNL1       -0.3417
      3 O           2.0000   -0.4907    0.0000 O.2     1  UNL1       -0.2508
      4 C           4.2601    0.7694    0.0000 C.3     1  UNL1        0.0201
      5 C           4.5691   -0.1816    0.0000 C.3     1  UNL1        0.2051
      6 C           3.2601    0.7694    0.0000 C.3     1  UNL1        0.0507
      7 C           2.9511   -0.1816    0.0000 C.2     1  UNL1        0.3094
      8 C           6.2633    0.1785    0.0000 C.3     1  UNL1        0.0489
      9 C           7.2144   -0.1305    0.0000 C.3     1  UNL1       -0.0414
     10 H           4.8665    0.8983    0.0000 H       1  UNL1        0.0331
     11 H           4.1953    1.3860    0.0000 H       1  UNL1        0.0331
     12 H           4.6661   -0.7940    0.0000 H       1  UNL1        0.1057
     13 H           3.3249    1.3860    0.0000 H       1  UNL1        0.0379
     14 H           2.6536    0.8983    0.0000 H       1  UNL1        0.0379
     15 H           6.5544    0.7259    0.0000 H       1  UNL1        0.0558
     16 H           5.7747    0.5602    0.0000 H       1  UNL1        0.0558
     17 H           7.0228   -0.7202    0.0000 H       1  UNL1        0.0252
     18 H           7.8040   -0.3221    0.0000 H       1  UNL1        0.0252
     19 H           7.4059    0.4591    0.0000 H       1  UNL1        0.0252
@<TRIPOS>BOND
     1     1     5    1
     2     1     7    1
     3     2     5    1
     4     2     8    1
     5     3     7    2
     6     4     5    1
     7     4     6    1
     8     4    10    1
     9     4    11    1
    10     5    12    1
    11     6     7    1
    12     6    13    1
    13     6    14    1
    14     8     9    1
    15     8    15    1
    16     8    16    1
    17     9    17    1
    18     9    18    1
    19     9    19    1
