@<TRIPOS>MOLECULE
IMPHY011511
 74 77 0 0 0
SMALL
GASTEIGER

@<TRIPOS>ATOM
      1 O          10.8769    0.1384    0.0000 O.3     1  UNL1       -0.4641
      2 O          12.3714    1.1090    0.0000 O.2     1  UNL1       -0.2505
      3 O           5.4641   -0.1592    0.0000 O.3     1  UNL1       -0.4800
      4 O           5.4641    1.8408    0.0000 O.3     1  UNL1       -0.4914
      5 O          13.2336    5.3000    0.0000 O.3     1  UNL1       -0.4915
      6 O          14.7199    3.9618    0.0000 O.3     1  UNL1       -0.5033
      7 O           3.7320   -1.1592    0.0000 O.3     1  UNL1       -0.3834
      8 O           7.1962   -1.1592    0.0000 O.3     1  UNL1       -0.3913
      9 O           2.8660   -4.6592    0.0000 O.3     1  UNL1       -0.4914
     10 O           4.5981   -5.6592    0.0000 O.3     1  UNL1       -0.5033
     11 C           9.7942    1.3408    0.0000 C.3     1  UNL1        0.0105
     12 C          10.7078    1.7476    0.0000 C.3     1  UNL1        0.0666
     13 C           9.8988    0.3463    0.0000 C.3     1  UNL1        0.0963
     14 C           8.9282    1.8408    0.0000 C.3     1  UNL1       -0.0209
     15 C          10.9157    2.7257    0.0000 C.3     1  UNL1       -0.0143
     16 C          11.3769    1.0044    0.0000 C.2     1  UNL1        0.3109
     17 C           8.0622    1.3408    0.0000 C.ar    1  UNL1       -0.0433
     18 C          11.8667    3.0347    0.0000 C.ar    1  UNL1       -0.0429
     19 C           7.1962    1.8408    0.0000 C.ar    1  UNL1       -0.0131
     20 C           8.0622    0.3408    0.0000 C.ar    1  UNL1       -0.0549
     21 C          12.0747    4.0129    0.0000 C.ar    1  UNL1       -0.0131
     22 C          12.6099    2.3656    0.0000 C.ar    1  UNL1       -0.0549
     23 C           6.3301    1.3408    0.0000 C.ar    1  UNL1        0.1618
     24 C           7.1962   -0.1592    0.0000 C.ar    1  UNL1       -0.0160
     25 C           6.3301    0.3408    0.0000 C.ar    1  UNL1        0.1626
     26 C          13.0257    4.3219    0.0000 C.ar    1  UNL1        0.1615
     27 C          13.5609    2.6746    0.0000 C.ar    1  UNL1       -0.0163
     28 C           5.4641   -1.1592    0.0000 C.3     1  UNL1        0.1530
     29 C          13.7689    3.6528    0.0000 C.ar    1  UNL1        0.1585
     30 C           4.5981   -1.6592    0.0000 C.3     1  UNL1        0.1192
     31 C           6.3301   -1.6592    0.0000 C.3     1  UNL1        0.0839
     32 C           4.5981   -2.6592    0.0000 C.ar    1  UNL1       -0.0119
     33 C           5.4641    2.8408    0.0000 C.3     1  UNL1        0.0790
     34 C           3.7320   -3.1592    0.0000 C.ar    1  UNL1       -0.0106
     35 C           5.4641   -3.1592    0.0000 C.ar    1  UNL1       -0.0523
     36 C          12.4905    5.9692    0.0000 C.3     1  UNL1        0.0790
     37 C           3.7320   -4.1592    0.0000 C.ar    1  UNL1        0.1616
     38 C           5.4641   -4.1592    0.0000 C.ar    1  UNL1       -0.0162
     39 C           4.5981   -4.6592    0.0000 C.ar    1  UNL1        0.1585
     40 C           2.0000   -4.1592    0.0000 C.3     1  UNL1        0.0790
     41 H           9.2742    1.0032    0.0000 H       1  UNL1        0.0345
     42 H          11.3066    1.9080    0.0000 H       1  UNL1        0.0420
     43 H           9.2788    0.3463    0.0000 H       1  UNL1        0.0700
     44 H           9.8340   -0.2703    0.0000 H       1  UNL1        0.0700
     45 H           9.3267    2.3158    0.0000 H       1  UNL1        0.0317
     46 H           8.5297    2.3158    0.0000 H       1  UNL1        0.0317
     47 H          10.8294    3.3397    0.0000 H       1  UNL1        0.0321
     48 H          10.2961    2.7474    0.0000 H       1  UNL1        0.0321
     49 H           7.1962    2.4608    0.0000 H       1  UNL1        0.0658
     50 H           8.5991    0.0308    0.0000 H       1  UNL1        0.0621
     51 H          11.6139    4.4277    0.0000 H       1  UNL1        0.0658
     52 H          12.4810    1.7592    0.0000 H       1  UNL1        0.0621
     53 H           7.1962   -0.7792    0.0000 H       1  UNL1        0.0655
     54 H          14.0217    2.2598    0.0000 H       1  UNL1        0.0655
     55 H           6.0010   -0.8492    0.0000 H       1  UNL1        0.0786
     56 H           4.5981   -1.0392    0.0000 H       1  UNL1        0.0682
     57 H           5.9316   -2.1341    0.0000 H       1  UNL1        0.0595
     58 H           6.7287   -2.1341    0.0000 H       1  UNL1        0.0595
     59 H           3.1951   -2.8492    0.0000 H       1  UNL1        0.0659
     60 H           6.0841    2.8408    0.0000 H       1  UNL1        0.0660
     61 H           5.4641    3.4608    0.0000 H       1  UNL1        0.0660
     62 H           4.8441    2.8408    0.0000 H       1  UNL1        0.0660
     63 H           6.0010   -2.8492    0.0000 H       1  UNL1        0.0622
     64 H          15.1807    3.5469    0.0000 H       1  UNL1        0.2923
     65 H           3.7320   -0.5392    0.0000 H       1  UNL1        0.2104
     66 H          12.9053    6.4299    0.0000 H       1  UNL1        0.0660
     67 H          12.0297    6.3840    0.0000 H       1  UNL1        0.0660
     68 H          12.0756    5.5084    0.0000 H       1  UNL1        0.0660
     69 H           7.7331   -1.4692    0.0000 H       1  UNL1        0.2096
     70 H           6.0010   -4.4692    0.0000 H       1  UNL1        0.0655
     71 H           5.1350   -5.9692    0.0000 H       1  UNL1        0.2923
     72 H           2.3100   -3.6222    0.0000 H       1  UNL1        0.0660
     73 H           1.4631   -3.8492    0.0000 H       1  UNL1        0.0660
     74 H           1.6900   -4.6961    0.0000 H       1  UNL1        0.0660
@<TRIPOS>BOND
     1     1    13    1
     2     1    16    1
     3     2    16    2
     4     3    25    1
     5     3    28    1
     6     4    23    1
     7     4    33    1
     8     5    26    1
     9     5    36    1
    10     6    29    1
    11     6    64    1
    12     7    30    1
    13     7    65    1
    14     8    31    1
    15     8    69    1
    16     9    37    1
    17     9    40    1
    18    10    39    1
    19    10    71    1
    20    11    12    1
    21    11    13    1
    22    11    14    1
    23    11    41    1
    24    12    15    1
    25    12    16    1
    26    12    42    1
    27    13    43    1
    28    13    44    1
    29    14    17    1
    30    14    45    1
    31    14    46    1
    32    15    18    1
    33    15    47    1
    34    15    48    1
    35    17    19   ar
    36    17    20   ar
    37    18    21   ar
    38    18    22   ar
    39    19    23   ar
    40    19    49    1
    41    20    24   ar
    42    20    50    1
    43    21    26   ar
    44    21    51    1
    45    22    27   ar
    46    22    52    1
    47    23    25   ar
    48    24    25   ar
    49    24    53    1
    50    26    29   ar
    51    27    29   ar
    52    27    54    1
    53    28    30    1
    54    28    31    1
    55    28    55    1
    56    30    32    1
    57    30    56    1
    58    31    57    1
    59    31    58    1
    60    32    34   ar
    61    32    35   ar
    62    33    60    1
    63    33    61    1
    64    33    62    1
    65    34    37   ar
    66    34    59    1
    67    35    38   ar
    68    35    63    1
    69    36    66    1
    70    36    67    1
    71    36    68    1
    72    37    39   ar
    73    38    39   ar
    74    38    70    1
    75    40    72    1
    76    40    73    1
    77    40    74    1
