@<TRIPOS>MOLECULE
IMPHY007818
 41 44 0 0 0
SMALL
GASTEIGER

@<TRIPOS>ATOM
      1 O           9.0014   -1.0252    0.0000 O.3     1  UNL1       -0.4526
      2 O           9.0014   -2.6346    0.0000 O.3     1  UNL1       -0.4526
      3 O           2.0000    2.2446    0.0000 O.3     1  UNL1       -0.5068
      4 N           4.5231   -1.3091    0.0000 N.3     1  UNL1       -0.2978
      5 C           5.4292   -0.7952    0.0000 C.3     1  UNL1        0.0397
      6 C           6.3231   -1.3299    0.0000 C.ar    1  UNL1       -0.0231
      7 C           4.5231   -2.3507    0.0000 C.3     1  UNL1        0.0032
      8 C           5.4292   -2.8646    0.0000 C.3     1  UNL1       -0.0144
      9 C           6.3231   -2.3299    0.0000 C.ar    1  UNL1       -0.0378
     10 C           5.4407    0.2047    0.0000 C.3     1  UNL1       -0.0079
     11 C           7.1892   -0.8299    0.0000 C.ar    1  UNL1       -0.0112
     12 C           7.1892   -2.8299    0.0000 C.ar    1  UNL1       -0.0126
     13 C           3.6590   -0.8058    0.0000 C.3     1  UNL1       -0.0122
     14 C           4.5806    0.7147    0.0000 C.ar    1  UNL1       -0.0453
     15 C           8.0552   -1.3299    0.0000 C.ar    1  UNL1        0.1666
     16 C           8.0552   -2.3299    0.0000 C.ar    1  UNL1        0.1665
     17 C           3.7088    0.2247    0.0000 C.ar    1  UNL1       -0.0551
     18 C           4.5921    1.7146    0.0000 C.ar    1  UNL1       -0.0551
     19 C           9.5850   -1.8299    0.0000 C.3     1  UNL1        0.2332
     20 C           2.8486    0.7347    0.0000 C.ar    1  UNL1       -0.0199
     21 C           3.7319    2.2246    0.0000 C.ar    1  UNL1       -0.0199
     22 C           2.8602    1.7346    0.0000 C.ar    1  UNL1        0.1169
     23 H           4.8953   -0.4801    0.0000 H       1  UNL1        0.0515
     24 H           3.9123   -2.2446    0.0000 H       1  UNL1        0.0430
     25 H           4.3141   -2.9344    0.0000 H       1  UNL1        0.0430
     26 H           5.0356   -3.3436    0.0000 H       1  UNL1        0.0326
     27 H           5.8338   -3.3344    0.0000 H       1  UNL1        0.0326
     28 H           6.0500    0.0900    0.0000 H       1  UNL1        0.0332
     29 H           5.6595    0.7848    0.0000 H       1  UNL1        0.0332
     30 H           7.1892   -0.2099    0.0000 H       1  UNL1        0.0659
     31 H           7.1892   -3.4499    0.0000 H       1  UNL1        0.0658
     32 H           3.9711   -0.2700    0.0000 H       1  UNL1        0.0391
     33 H           3.1233   -0.4937    0.0000 H       1  UNL1        0.0391
     34 H           3.3470   -1.3415    0.0000 H       1  UNL1        0.0391
     35 H           3.7016   -0.3952    0.0000 H       1  UNL1        0.0621
     36 H           5.1326    2.0184    0.0000 H       1  UNL1        0.0621
     37 H          10.0459   -2.2446    0.0000 H       1  UNL1        0.1166
     38 H          10.0459   -1.4152    0.0000 H       1  UNL1        0.1166
     39 H           2.3081    0.4309    0.0000 H       1  UNL1        0.0654
     40 H           3.7391    2.8445    0.0000 H       1  UNL1        0.0654
     41 H           2.0072    2.8646    0.0000 H       1  UNL1        0.2921
@<TRIPOS>BOND
     1     1    15    1
     2     1    19    1
     3     2    16    1
     4     2    19    1
     5     3    22    1
     6     3    41    1
     7     4     5    1
     8     4     7    1
     9     4    13    1
    10     5     6    1
    11     5    10    1
    12     5    23    1
    13     6     9   ar
    14     6    11   ar
    15     7     8    1
    16     7    24    1
    17     7    25    1
    18     8     9    1
    19     8    26    1
    20     8    27    1
    21     9    12   ar
    22    10    14    1
    23    10    28    1
    24    10    29    1
    25    11    15   ar
    26    11    30    1
    27    12    16   ar
    28    12    31    1
    29    13    32    1
    30    13    33    1
    31    13    34    1
    32    14    17   ar
    33    14    18   ar
    34    15    16   ar
    35    17    20   ar
    36    17    35    1
    37    18    21   ar
    38    18    36    1
    39    19    37    1
    40    19    38    1
    41    20    22   ar
    42    20    39    1
    43    21    22   ar
    44    21    40    1
