@<TRIPOS>MOLECULE
IMPHY015527
 26 25 0 0 0
SMALL
GASTEIGER

@<TRIPOS>ATOM
      1 O           5.4641    0.2500    0.0000 O.3     1  UNL1       -0.4645
      2 O           6.3301   -1.2500    0.0000 O.2     1  UNL1       -0.2506
      3 C           3.7320    0.2500    0.0000 C.3     1  UNL1       -0.0188
      4 C           7.1962    0.2500    0.0000 C.3     1  UNL1        0.0508
      5 C           2.8660   -0.2500    0.0000 C.3     1  UNL1       -0.0528
      6 C           4.5981   -0.2500    0.0000 C.3     1  UNL1        0.0925
      7 C           6.3301   -0.2500    0.0000 C.2     1  UNL1        0.3097
      8 C           8.0622   -0.2500    0.0000 C.3     1  UNL1       -0.0525
      9 C           7.1962    1.2500    0.0000 C.3     1  UNL1       -0.0525
     10 C           2.0000    0.2500    0.0000 C.3     1  UNL1       -0.0652
     11 H           4.1306    0.7249    0.0000 H       1  UNL1        0.0298
     12 H           3.3335    0.7249    0.0000 H       1  UNL1        0.0298
     13 H           6.6592    0.5600    0.0000 H       1  UNL1        0.0408
     14 H           2.4675   -0.7249    0.0000 H       1  UNL1        0.0264
     15 H           3.2646   -0.7249    0.0000 H       1  UNL1        0.0264
     16 H           4.1996   -0.7249    0.0000 H       1  UNL1        0.0697
     17 H           4.9966   -0.7249    0.0000 H       1  UNL1        0.0697
     18 H           7.7522   -0.7869    0.0000 H       1  UNL1        0.0237
     19 H           8.5991   -0.5600    0.0000 H       1  UNL1        0.0237
     20 H           8.3722    0.2869    0.0000 H       1  UNL1        0.0237
     21 H           7.8162    1.2500    0.0000 H       1  UNL1        0.0237
     22 H           7.1962    1.8700    0.0000 H       1  UNL1        0.0237
     23 H           6.5762    1.2500    0.0000 H       1  UNL1        0.0237
     24 H           2.3100    0.7869    0.0000 H       1  UNL1        0.0230
     25 H           1.4631    0.5600    0.0000 H       1  UNL1        0.0230
     26 H           1.6900   -0.2869    0.0000 H       1  UNL1        0.0230
@<TRIPOS>BOND
     1     1     6    1
     2     1     7    1
     3     2     7    2
     4     3     5    1
     5     3     6    1
     6     3    11    1
     7     3    12    1
     8     4     7    1
     9     4     8    1
    10     4     9    1
    11     4    13    1
    12     5    10    1
    13     5    14    1
    14     5    15    1
    15     6    16    1
    16     6    17    1
    17     8    18    1
    18     8    19    1
    19     8    20    1
    20     9    21    1
    21     9    22    1
    22     9    23    1
    23    10    24    1
    24    10    25    1
    25    10    26    1
