@<TRIPOS>MOLECULE
IMPHY013587
 123 131 0 0 0
SMALL
GASTEIGER

@<TRIPOS>ATOM
      1 O           2.5033    5.1646    0.0000 O.3     1  UNL1       -0.3604
      2 O           4.2690   -0.0390    0.0000 O.3     1  UNL1       -0.3480
      3 O           5.3662    9.3490    0.0000 O.3     1  UNL1       -0.4571
      4 O           7.0865    8.8841    0.0000 O.2     1  UNL1       -0.2456
      5 O           5.1350   -1.5390    0.0000 O.3     1  UNL1       -0.3456
      6 O           7.7331   -0.0390    0.0000 O.3     1  UNL1       -0.3770
      7 O           7.7331   -2.0390    0.0000 O.3     1  UNL1       -0.3403
      8 O           6.8671   -3.5390    0.0000 O.3     1  UNL1       -0.3405
      9 O           9.4651   -3.0390    0.0000 O.3     1  UNL1       -0.3841
     10 O           9.4651   -5.0390    0.0000 O.3     1  UNL1       -0.3864
     11 O           7.7331   -6.0390    0.0000 O.3     1  UNL1       -0.3865
     12 O           6.0010   -6.0390    0.0000 O.3     1  UNL1       -0.3460
     13 O           4.2690   -6.0390    0.0000 O.3     1  UNL1       -0.3405
     14 O           6.0010   -8.0390    0.0000 O.3     1  UNL1       -0.3841
     15 O           4.2690   -9.0390    0.0000 O.3     1  UNL1       -0.3864
     16 O           2.5369   -8.0390    0.0000 O.3     1  UNL1       -0.3865
     17 O           2.5369   -5.0390    0.0000 O.3     1  UNL1       -0.3924
     18 C           3.3718    5.6612    0.0000 C.3     1  UNL1        0.1053
     19 C           3.3679    4.6612    0.0000 C.3     1  UNL1        0.1030
     20 C           4.2397    6.1579    0.0000 C.3     1  UNL1        0.0063
     21 C           4.2320    4.1579    0.0000 C.3     1  UNL1       -0.0034
     22 C           4.2441    3.1164    0.0000 C.3     1  UNL1       -0.0235
     23 C           2.6373    6.3312    0.0000 C.3     1  UNL1       -0.0199
     24 C           2.4560    4.1579    0.0000 C.3     1  UNL1       -0.0204
     25 C           4.0343    7.1305    0.0000 C.3     1  UNL1       -0.0080
     26 C           5.1038    5.6546    0.0000 C.3     1  UNL1       -0.0440
     27 C           5.1000    4.6546    0.0000 C.3     1  UNL1       -0.0464
     28 C           3.3440    2.5921    0.0000 C.3     1  UNL1       -0.0329
     29 C           3.0460    7.2374    0.0000 C.3     1  UNL1       -0.0431
     30 C           2.4439    3.1164    0.0000 C.3     1  UNL1       -0.0469
     31 C           5.1077    6.6546    0.0000 C.3     1  UNL1       -0.0563
     32 C           5.1940    2.5921    0.0000 C.3     1  UNL1       -0.0447
     33 C           3.3314    1.5071    0.0000 C.3     1  UNL1       -0.0232
     34 C           5.1082    3.6197    0.0000 C.3     1  UNL1       -0.0590
     35 C           4.7050    7.8722    0.0000 C.2     1  UNL1       -0.0222
     36 C           5.2065    1.5071    0.0000 C.3     1  UNL1       -0.0260
     37 C           4.2690    0.9610    0.0000 C.3     1  UNL1        0.0620
     38 C           4.4991    8.8508    0.0000 C.3     1  UNL1        0.1147
     39 C           5.6993    7.7656    0.0000 C.2     1  UNL1        0.0252
     40 C           6.1080    8.6783    0.0000 C.2     1  UNL1        0.3323
     41 C           5.1350   -0.5390    0.0000 C.3     1  UNL1        0.1624
     42 C           6.0010   -0.0390    0.0000 C.3     1  UNL1        0.0272
     43 C           6.8671   -0.5390    0.0000 C.3     1  UNL1        0.0915
     44 C           6.0010   -2.0390    0.0000 C.3     1  UNL1        0.0875
     45 C           6.8671   -1.5390    0.0000 C.3     1  UNL1        0.1138
     46 C           6.0010   -3.0390    0.0000 C.3     1  UNL1       -0.0361
     47 C           7.7331   -3.0390    0.0000 C.3     1  UNL1        0.1884
     48 C           7.7331    0.9610    0.0000 C.3     1  UNL1        0.0369
     49 C           8.5991   -3.5390    0.0000 C.3     1  UNL1        0.1341
     50 C           8.5991   -4.5390    0.0000 C.3     1  UNL1        0.1141
     51 C           6.8671   -4.5390    0.0000 C.3     1  UNL1        0.1134
     52 C           7.7331   -5.0390    0.0000 C.3     1  UNL1        0.1119
     53 C           6.0010   -5.0390    0.0000 C.3     1  UNL1        0.0796
     54 C           5.1350   -6.5390    0.0000 C.3     1  UNL1        0.1880
     55 C           5.1350   -7.5390    0.0000 C.3     1  UNL1        0.1341
     56 C           4.2690   -8.0390    0.0000 C.3     1  UNL1        0.1141
     57 C           3.4030   -6.5390    0.0000 C.3     1  UNL1        0.1130
     58 C           3.4030   -7.5390    0.0000 C.3     1  UNL1        0.1119
     59 C           2.5369   -6.0390    0.0000 C.3     1  UNL1        0.0730
     60 H           4.9698    3.7358    0.0000 H       1  UNL1        0.0335
     61 H           2.1021    6.6440    0.0000 H       1  UNL1        0.0294
     62 H           2.2700    5.8317    0.0000 H       1  UNL1        0.0294
     63 H           2.2537    4.7440    0.0000 H       1  UNL1        0.0294
     64 H           1.8439    4.0589    0.0000 H       1  UNL1        0.0294
     65 H           3.8136    7.7099    0.0000 H       1  UNL1        0.0353
     66 H           5.7140    5.5446    0.0000 H       1  UNL1        0.0272
     67 H           5.3181    6.2364    0.0000 H       1  UNL1        0.0272
     68 H           5.3098    4.0711    0.0000 H       1  UNL1        0.0269
     69 H           5.7110    4.7599    0.0000 H       1  UNL1        0.0269
     70 H           2.6046    2.1728    0.0000 H       1  UNL1        0.0307
     71 H           3.1770    7.8434    0.0000 H       1  UNL1        0.0272
     72 H           2.4571    7.4314    0.0000 H       1  UNL1        0.0272
     73 H           1.8344    3.2295    0.0000 H       1  UNL1        0.0269
     74 H           2.2281    2.5351    0.0000 H       1  UNL1        0.0269
     75 H           5.4156    6.1164    0.0000 H       1  UNL1        0.0236
     76 H           5.6458    6.9625    0.0000 H       1  UNL1        0.0236
     77 H           4.7997    7.1927    0.0000 H       1  UNL1        0.0236
     78 H           5.8060    2.4930    0.0000 H       1  UNL1        0.0271
     79 H           5.3963    3.1781    0.0000 H       1  UNL1        0.0271
     80 H           2.7219    1.6203    0.0000 H       1  UNL1        0.0293
     81 H           3.1157    0.9259    0.0000 H       1  UNL1        0.0293
     82 H           5.4202    3.0840    0.0000 H       1  UNL1        0.0235
     83 H           5.6439    3.9318    0.0000 H       1  UNL1        0.0235
     84 H           4.7961    4.1554    0.0000 H       1  UNL1        0.0235
     85 H           5.4223    0.9259    0.0000 H       1  UNL1        0.0290
     86 H           5.8161    1.6203    0.0000 H       1  UNL1        0.0290
     87 H           4.8065    0.6521    0.0000 H       1  UNL1        0.0597
     88 H           4.2482    9.4178    0.0000 H       1  UNL1        0.0746
     89 H           3.9091    8.6605    0.0000 H       1  UNL1        0.0746
     90 H           6.0081    7.2280    0.0000 H       1  UNL1        0.0689
     91 H           5.1350    0.0810    0.0000 H       1  UNL1        0.0910
     92 H           6.3996    0.4360    0.0000 H       1  UNL1        0.0340
     93 H           5.6025    0.4360    0.0000 H       1  UNL1        0.0340
     94 H           6.8671    0.0810    0.0000 H       1  UNL1        0.0624
     95 H           5.4641   -2.3490    0.0000 H       1  UNL1        0.0621
     96 H           7.4040   -1.2290    0.0000 H       1  UNL1        0.0649
     97 H           5.3810   -3.0390    0.0000 H       1  UNL1        0.0255
     98 H           6.0010   -3.6590    0.0000 H       1  UNL1        0.0255
     99 H           6.6210   -3.0390    0.0000 H       1  UNL1        0.0255
    100 H           7.1962   -2.7290    0.0000 H       1  UNL1        0.0938
    101 H           8.3531    0.9610    0.0000 H       1  UNL1        0.0524
    102 H           7.7331    1.5810    0.0000 H       1  UNL1        0.0524
    103 H           7.1131    0.9610    0.0000 H       1  UNL1        0.0524
    104 H           8.5991   -2.9190    0.0000 H       1  UNL1        0.0671
    105 H           9.1360   -4.2290    0.0000 H       1  UNL1        0.0648
    106 H           6.3301   -4.2290    0.0000 H       1  UNL1        0.0647
    107 H           8.2700   -5.3490    0.0000 H       1  UNL1        0.0647
    108 H           9.4651   -2.4190    0.0000 H       1  UNL1        0.2101
    109 H           5.7890   -4.4564    0.0000 H       1  UNL1        0.0587
    110 H           5.3905   -5.1466    0.0000 H       1  UNL1        0.0587
    111 H          10.0021   -4.7290    0.0000 H       1  UNL1        0.2100
    112 H           8.2700   -6.3490    0.0000 H       1  UNL1        0.2100
    113 H           5.1350   -5.9190    0.0000 H       1  UNL1        0.0937
    114 H           5.6720   -7.2290    0.0000 H       1  UNL1        0.0671
    115 H           4.8059   -8.3490    0.0000 H       1  UNL1        0.0648
    116 H           3.4030   -5.9190    0.0000 H       1  UNL1        0.0647
    117 H           2.8660   -7.2290    0.0000 H       1  UNL1        0.0647
    118 H           1.9264   -5.9313    0.0000 H       1  UNL1        0.0584
    119 H           2.3249   -6.6216    0.0000 H       1  UNL1        0.0584
    120 H           6.5380   -7.7290    0.0000 H       1  UNL1        0.2101
    121 H           3.7320   -9.3490    0.0000 H       1  UNL1        0.2100
    122 H           2.0000   -7.7290    0.0000 H       1  UNL1        0.2100
    123 H           2.0000   -4.7290    0.0000 H       1  UNL1        0.2095
@<TRIPOS>BOND
     1    18     1    1
     2    19     1    1
     3    37     2    1
     4    41     2    1
     5     3    38    1
     6     3    40    1
     7     4    40    2
     8     5    41    1
     9     5    44    1
    10    43     6    1
    11     6    48    1
    12    45     7    1
    13    47     7    1
    14     8    47    1
    15     8    51    1
    16    49     9    1
    17     9   108    1
    18    50    10    1
    19    10   111    1
    20    52    11    1
    21    11   112    1
    22    12    53    1
    23    54    12    1
    24    13    54    1
    25    13    57    1
    26    55    14    1
    27    14   120    1
    28    56    15    1
    29    15   121    1
    30    58    16    1
    31    16   122    1
    32    17    59    1
    33    17   123    1
    34    18    19    1
    35    18    20    1
    36    18    23    1
    37    19    21    1
    38    19    24    1
    39    20    25    1
    40    20    26    1
    41    20    31    1
    42    21    22    1
    43    21    27    1
    44    21    60    1
    45    22    28    1
    46    22    32    1
    47    22    34    1
    48    23    29    1
    49    23    61    1
    50    23    62    1
    51    24    30    1
    52    24    63    1
    53    24    64    1
    54    25    29    1
    55    25    35    1
    56    25    65    1
    57    26    27    1
    58    26    66    1
    59    26    67    1
    60    27    68    1
    61    27    69    1
    62    28    30    1
    63    28    33    1
    64    28    70    1
    65    29    71    1
    66    29    72    1
    67    30    73    1
    68    30    74    1
    69    31    75    1
    70    31    76    1
    71    31    77    1
    72    32    36    1
    73    32    78    1
    74    32    79    1
    75    33    37    1
    76    33    80    1
    77    33    81    1
    78    34    82    1
    79    34    83    1
    80    34    84    1
    81    35    38    1
    82    35    39    2
    83    36    37    1
    84    36    85    1
    85    36    86    1
    86    37    87    1
    87    38    88    1
    88    38    89    1
    89    39    40    1
    90    39    90    1
    91    41    42    1
    92    41    91    1
    93    42    43    1
    94    42    92    1
    95    42    93    1
    96    43    45    1
    97    43    94    1
    98    44    45    1
    99    44    46    1
   100    44    95    1
   101    45    96    1
   102    46    97    1
   103    46    98    1
   104    46    99    1
   105    47    49    1
   106    47   100    1
   107    48   101    1
   108    48   102    1
   109    48   103    1
   110    49    50    1
   111    49   104    1
   112    50    52    1
   113    50   105    1
   114    51    52    1
   115    51    53    1
   116    51   106    1
   117    52   107    1
   118    53   109    1
   119    53   110    1
   120    54    55    1
   121    54   113    1
   122    55    56    1
   123    55   114    1
   124    56    58    1
   125    56   115    1
   126    57    58    1
   127    57    59    1
   128    57   116    1
   129    58   117    1
   130    59   118    1
   131    59   119    1
