@<TRIPOS>MOLECULE
IMPHY017804
 46 45 0 0 0
SMALL
GASTEIGER

@<TRIPOS>ATOM
      1 O           6.0010   -1.0600    0.0000 O.2     1  UNL1       -0.2758
      2 O           2.5369   -0.0600    0.0000 O.3     1  UNL1       -0.3935
      3 N           5.1350    0.4400    0.0000 N.am    1  UNL1       -0.3131
      4 C          10.3312    0.4400    0.0000 C.3     1  UNL1       -0.0531
      5 C          11.1972   -0.0600    0.0000 C.3     1  UNL1       -0.0531
      6 C           9.4651   -0.0600    0.0000 C.3     1  UNL1       -0.0530
      7 C          12.0632    0.4400    0.0000 C.3     1  UNL1       -0.0531
      8 C           8.5991    0.4400    0.0000 C.3     1  UNL1       -0.0526
      9 C          12.9292   -0.0600    0.0000 C.3     1  UNL1       -0.0531
     10 C           7.7331   -0.0600    0.0000 C.3     1  UNL1       -0.0448
     11 C          13.7953    0.4400    0.0000 C.3     1  UNL1       -0.0533
     12 C           6.8671    0.4400    0.0000 C.3     1  UNL1        0.0240
     13 C          14.6613   -0.0600    0.0000 C.3     1  UNL1       -0.0559
     14 C          15.5273    0.4400    0.0000 C.3     1  UNL1       -0.0653
     15 C           6.0010   -0.0600    0.0000 C.2     1  UNL1        0.2131
     16 C           4.2690   -0.0600    0.0000 C.3     1  UNL1        0.0348
     17 C           3.4030    0.4400    0.0000 C.3     1  UNL1        0.0597
     18 H          10.7297    0.9149    0.0000 H       1  UNL1        0.0265
     19 H           9.9326    0.9149    0.0000 H       1  UNL1        0.0265
     20 H          10.7987   -0.5349    0.0000 H       1  UNL1        0.0265
     21 H          11.5957   -0.5349    0.0000 H       1  UNL1        0.0265
     22 H           9.0666   -0.5349    0.0000 H       1  UNL1        0.0265
     23 H           9.8637   -0.5349    0.0000 H       1  UNL1        0.0265
     24 H          12.4617    0.9149    0.0000 H       1  UNL1        0.0265
     25 H          11.6647    0.9149    0.0000 H       1  UNL1        0.0265
     26 H           8.9976    0.9149    0.0000 H       1  UNL1        0.0265
     27 H           8.2006    0.9149    0.0000 H       1  UNL1        0.0265
     28 H          12.5307   -0.5349    0.0000 H       1  UNL1        0.0265
     29 H          13.3278   -0.5349    0.0000 H       1  UNL1        0.0265
     30 H           7.3346   -0.5349    0.0000 H       1  UNL1        0.0270
     31 H           8.1316   -0.5349    0.0000 H       1  UNL1        0.0270
     32 H          14.1938    0.9149    0.0000 H       1  UNL1        0.0265
     33 H          13.3967    0.9149    0.0000 H       1  UNL1        0.0265
     34 H           7.2656    0.9149    0.0000 H       1  UNL1        0.0358
     35 H           6.4685    0.9149    0.0000 H       1  UNL1        0.0358
     36 H          14.2628   -0.5349    0.0000 H       1  UNL1        0.0263
     37 H          15.0598   -0.5349    0.0000 H       1  UNL1        0.0263
     38 H          15.8373   -0.0969    0.0000 H       1  UNL1        0.0230
     39 H          16.0643    0.7500    0.0000 H       1  UNL1        0.0230
     40 H          15.2173    0.9769    0.0000 H       1  UNL1        0.0230
     41 H           5.1350    1.0600    0.0000 H       1  UNL1        0.1488
     42 H           3.8705   -0.5349    0.0000 H       1  UNL1        0.0484
     43 H           4.6675   -0.5349    0.0000 H       1  UNL1        0.0484
     44 H           3.8015    0.9149    0.0000 H       1  UNL1        0.0573
     45 H           3.0044    0.9149    0.0000 H       1  UNL1        0.0573
     46 H           2.0000    0.2500    0.0000 H       1  UNL1        0.2095
@<TRIPOS>BOND
     1     1    15    2
     2     2    17    1
     3     2    46    1
     4     3    15   am
     5     3    16    1
     6     3    41    1
     7     4     5    1
     8     4     6    1
     9     4    18    1
    10     4    19    1
    11     5     7    1
    12     5    20    1
    13     5    21    1
    14     6     8    1
    15     6    22    1
    16     6    23    1
    17     7     9    1
    18     7    24    1
    19     7    25    1
    20     8    10    1
    21     8    26    1
    22     8    27    1
    23     9    11    1
    24     9    28    1
    25     9    29    1
    26    10    12    1
    27    10    30    1
    28    10    31    1
    29    11    13    1
    30    11    32    1
    31    11    33    1
    32    12    15    1
    33    12    34    1
    34    12    35    1
    35    13    14    1
    36    13    36    1
    37    13    37    1
    38    14    38    1
    39    14    39    1
    40    14    40    1
    41    16    17    1
    42    16    42    1
    43    16    43    1
    44    17    44    1
    45    17    45    1
