@<TRIPOS>MOLECULE
IMPHY001408
 47 50 0 0 0
SMALL
GASTEIGER

@<TRIPOS>ATOM
      1 O           6.3234    0.0401    0.0000 O.3     1  UNL1       -0.3707
      2 O           3.2547    0.0401    0.0000 O.3     1  UNL1       -0.4559
      3 O           3.5335    1.8002    0.0000 O.2     1  UNL1       -0.2504
      4 O           8.3181    3.1583    0.0000 O.3     1  UNL1       -0.4914
      5 O           4.5628   -4.1573    0.0000 O.3     1  UNL1       -0.4914
      6 O           6.9824    4.6469    0.0000 O.3     1  UNL1       -0.5033
      7 O           2.6064   -4.5732    0.0000 O.3     1  UNL1       -0.5033
      8 C           4.7936   -0.4599    0.0000 C.3     1  UNL1        0.0394
      9 C           4.7936    0.5401    0.0000 C.3     1  UNL1        0.0952
     10 C           5.7398    0.8448    0.0000 C.3     1  UNL1        0.0971
     11 C           3.8425   -0.7689    0.0000 C.3     1  UNL1        0.1339
     12 C           5.7398   -0.7646    0.0000 C.3     1  UNL1        0.0558
     13 C           3.8425    0.8491    0.0000 C.2     1  UNL1        0.3141
     14 C           6.0505    1.7954    0.0000 C.ar    1  UNL1       -0.0144
     15 C           3.5335   -1.7200    0.0000 C.ar    1  UNL1       -0.0032
     16 C           7.0290    2.0016    0.0000 C.ar    1  UNL1       -0.0107
     17 C           4.2026   -2.4631    0.0000 C.ar    1  UNL1       -0.0096
     18 C           5.3826    2.5396    0.0000 C.ar    1  UNL1       -0.0524
     19 C           2.5553   -1.9279    0.0000 C.ar    1  UNL1       -0.0514
     20 C           7.3396    2.9521    0.0000 C.ar    1  UNL1        0.1616
     21 C           3.8936   -3.4142    0.0000 C.ar    1  UNL1        0.1616
     22 C           5.6933    3.4902    0.0000 C.ar    1  UNL1       -0.0162
     23 C           2.2463   -2.8789    0.0000 C.ar    1  UNL1       -0.0161
     24 C           6.6718    3.6964    0.0000 C.ar    1  UNL1        0.1585
     25 C           2.9155   -3.6221    0.0000 C.ar    1  UNL1        0.1585
     26 C           8.9860    2.4140    0.0000 C.3     1  UNL1        0.0790
     27 C           4.2537   -5.1084    0.0000 C.3     1  UNL1        0.0790
     28 H           4.7947   -1.3099    0.0000 H       1  UNL1        0.0371
     29 H           4.7947    1.3901    0.0000 H       1  UNL1        0.0447
     30 H           6.3523    0.9410    0.0000 H       1  UNL1        0.0654
     31 H           3.2302   -0.8659    0.0000 H       1  UNL1        0.0789
     32 H           5.4888   -1.3315    0.0000 H       1  UNL1        0.0564
     33 H           6.2772   -1.0739    0.0000 H       1  UNL1        0.0564
     34 H           7.4430    1.5401    0.0000 H       1  UNL1        0.0659
     35 H           4.8091   -2.3342    0.0000 H       1  UNL1        0.0659
     36 H           4.7759    2.4118    0.0000 H       1  UNL1        0.0622
     37 H           2.1405   -1.4671    0.0000 H       1  UNL1        0.0623
     38 H           5.2792    3.9516    0.0000 H       1  UNL1        0.0655
     39 H           1.6399   -3.0078    0.0000 H       1  UNL1        0.0655
     40 H           6.5684    5.1084    0.0000 H       1  UNL1        0.2923
     41 H           2.0000   -4.7020    0.0000 H       1  UNL1        0.2923
     42 H           8.5245    1.9999    0.0000 H       1  UNL1        0.0660
     43 H           9.4000    1.9525    0.0000 H       1  UNL1        0.0660
     44 H           9.4474    2.8281    0.0000 H       1  UNL1        0.0660
     45 H           3.6641   -4.9168    0.0000 H       1  UNL1        0.0660
     46 H           4.0621   -5.6980    0.0000 H       1  UNL1        0.0660
     47 H           4.8434   -5.3000    0.0000 H       1  UNL1        0.0660
@<TRIPOS>BOND
     1     1    10    1
     2     1    12    1
     3     2    11    1
     4     2    13    1
     5     3    13    2
     6     4    20    1
     7     4    26    1
     8     5    21    1
     9     5    27    1
    10     6    24    1
    11     6    40    1
    12     7    25    1
    13     7    41    1
    14     8     9    1
    15     8    11    1
    16     8    12    1
    17     8    28    1
    18     9    10    1
    19     9    13    1
    20     9    29    1
    21    10    14    1
    22    10    30    1
    23    11    15    1
    24    11    31    1
    25    12    32    1
    26    12    33    1
    27    14    16   ar
    28    14    18   ar
    29    15    17   ar
    30    15    19   ar
    31    16    20   ar
    32    16    34    1
    33    17    21   ar
    34    17    35    1
    35    18    22   ar
    36    18    36    1
    37    19    23   ar
    38    19    37    1
    39    20    24   ar
    40    21    25   ar
    41    22    24   ar
    42    22    38    1
    43    23    25   ar
    44    23    39    1
    45    26    42    1
    46    26    43    1
    47    26    44    1
    48    27    45    1
    49    27    46    1
    50    27    47    1
