@<TRIPOS>MOLECULE
IMPHY004559
 55 56 0 0 0
SMALL
GASTEIGER

@<TRIPOS>ATOM
      1 O           4.2690   -0.6768    0.0000 O.3     1  UNL1       -0.3405
      2 O           6.0010   -0.6768    0.0000 O.3     1  UNL1       -0.3484
      3 O           8.8265    3.9868    0.0000 O.2     1  UNL1       -0.2971
      4 O           4.2690   -3.6768    0.0000 O.3     1  UNL1       -0.3864
      5 O           2.5369   -2.6768    0.0000 O.3     1  UNL1       -0.3865
      6 O           6.0010   -2.6768    0.0000 O.3     1  UNL1       -0.3841
      7 O           2.5369    0.3232    0.0000 O.3     1  UNL1       -0.3924
      8 O          11.7456   -0.3489    0.0000 O.3     1  UNL1       -0.4806
      9 O          12.2808    1.2984    0.0000 O.2     1  UNL1       -0.2510
     10 C          10.3787    1.9164    0.0000 C.3     1  UNL1       -0.0208
     11 C           9.4651    2.3232    0.0000 C.3     1  UNL1        0.0242
     12 C          11.0478    2.6596    0.0000 C.3     1  UNL1       -0.0424
     13 C          10.5478    3.5256    0.0000 C.3     1  UNL1        0.0064
     14 C           9.5697    3.3177    0.0000 C.2     1  UNL1        0.1370
     15 C           8.5991    1.8232    0.0000 C.3     1  UNL1       -0.0250
     16 C          10.5866    0.9383    0.0000 C.3     1  UNL1        0.0483
     17 C           4.2690   -2.6768    0.0000 C.3     1  UNL1        0.1141
     18 C           3.4030   -2.1768    0.0000 C.3     1  UNL1        0.1119
     19 C           5.1350   -2.1768    0.0000 C.3     1  UNL1        0.1341
     20 C           3.4030   -1.1768    0.0000 C.3     1  UNL1        0.1130
     21 C           5.1350   -1.1768    0.0000 C.3     1  UNL1        0.1879
     22 C           7.7331    2.3232    0.0000 C.2     1  UNL1       -0.0872
     23 C           2.5369   -0.6768    0.0000 C.3     1  UNL1        0.0730
     24 C          11.5377    0.6293    0.0000 C.2     1  UNL1        0.3050
     25 C           6.0010    0.3232    0.0000 C.3     1  UNL1        0.0542
     26 C           6.8671    1.8232    0.0000 C.2     1  UNL1       -0.0857
     27 C           6.8671    0.8232    0.0000 C.3     1  UNL1       -0.0111
     28 H           9.8968    1.5263    0.0000 H       1  UNL1        0.0313
     29 H           9.4976    1.7040    0.0000 H       1  UNL1        0.0383
     30 H          11.4627    2.1988    0.0000 H       1  UNL1        0.0272
     31 H          11.5494    3.0240    0.0000 H       1  UNL1        0.0272
     32 H          11.1142    3.7778    0.0000 H       1  UNL1        0.0342
     33 H          10.3562    4.1153    0.0000 H       1  UNL1        0.0342
     34 H           8.2006    1.3482    0.0000 H       1  UNL1        0.0314
     35 H           8.9976    1.3482    0.0000 H       1  UNL1        0.0314
     36 H           9.9670    0.9167    0.0000 H       1  UNL1        0.0380
     37 H          10.5003    0.3243    0.0000 H       1  UNL1        0.0380
     38 H           4.8059   -2.9868    0.0000 H       1  UNL1        0.0648
     39 H           3.4030   -2.7968    0.0000 H       1  UNL1        0.0647
     40 H           5.6720   -1.8668    0.0000 H       1  UNL1        0.0671
     41 H           3.4030   -0.5568    0.0000 H       1  UNL1        0.0647
     42 H           5.1350   -0.5568    0.0000 H       1  UNL1        0.0937
     43 H           7.7331    2.9432    0.0000 H       1  UNL1        0.0569
     44 H           1.9264   -0.5692    0.0000 H       1  UNL1        0.0584
     45 H           2.3249   -1.2594    0.0000 H       1  UNL1        0.0584
     46 H           5.7890    0.9058    0.0000 H       1  UNL1        0.0564
     47 H           5.3905    0.2155    0.0000 H       1  UNL1        0.0564
     48 H           6.3301    2.1332    0.0000 H       1  UNL1        0.0570
     49 H           7.0791    0.2406    0.0000 H       1  UNL1        0.0330
     50 H           7.4776    0.9308    0.0000 H       1  UNL1        0.0330
     51 H           3.7320   -3.9868    0.0000 H       1  UNL1        0.2100
     52 H           2.0000   -2.3668    0.0000 H       1  UNL1        0.2100
     53 H           6.5380   -2.3668    0.0000 H       1  UNL1        0.2101
     54 H           2.0000    0.6332    0.0000 H       1  UNL1        0.2095
     55 H          12.3352   -0.5405    0.0000 H       1  UNL1        0.2951
@<TRIPOS>BOND
     1     1    20    1
     2     1    21    1
     3    21     2    1
     4     2    25    1
     5     3    14    2
     6    17     4    1
     7     4    51    1
     8    18     5    1
     9     5    52    1
    10    19     6    1
    11     6    53    1
    12     7    23    1
    13     7    54    1
    14     8    24    1
    15     8    55    1
    16     9    24    2
    17    10    11    1
    18    10    12    1
    19    10    16    1
    20    10    28    1
    21    11    14    1
    22    11    15    1
    23    11    29    1
    24    12    13    1
    25    12    30    1
    26    12    31    1
    27    13    14    1
    28    13    32    1
    29    13    33    1
    30    15    22    1
    31    15    34    1
    32    15    35    1
    33    16    24    1
    34    16    36    1
    35    16    37    1
    36    17    18    1
    37    17    19    1
    38    17    38    1
    39    18    20    1
    40    18    39    1
    41    19    21    1
    42    19    40    1
    43    20    23    1
    44    20    41    1
    45    21    42    1
    46    22    26    2
    47    22    43    1
    48    23    44    1
    49    23    45    1
    50    25    27    1
    51    25    46    1
    52    25    47    1
    53    26    27    1
    54    26    48    1
    55    27    49    1
    56    27    50    1
