@<TRIPOS>MOLECULE
IMPHY007265
 32 34 0 0 0
SMALL
GASTEIGER

@<TRIPOS>ATOM
      1 O           8.2103   -0.7824    0.0000 O.2     1  UNL1       -0.4449
      2 O           6.3981    2.0223    0.0000 O.3     1  UNL1       -0.4937
      3 O           4.6497   -2.0123    0.0000 O.3     1  UNL1       -0.4895
      4 O           2.8680   -1.0019    0.0000 O.3     1  UNL1       -0.4914
      5 N           6.3981   -0.9777    0.0000 N.ar    1  UNL1       -0.2080
      6 C           5.5320    0.5223    0.0000 C.ar    1  UNL1        0.0467
      7 C           5.5320   -0.4777    0.0000 C.ar    1  UNL1        0.1235
      8 C           6.3981    1.0223    0.0000 C.ar    1  UNL1        0.1417
      9 C           7.2641    0.5223    0.0000 C.ar    1  UNL1        0.0820
     10 C           4.6381   -1.0124    0.0000 C.ar    1  UNL1        0.1877
     11 C           7.2641   -0.4777    0.0000 C.ar    1  UNL1        0.2312
     12 C           4.6381    1.0570    0.0000 C.ar    1  UNL1       -0.0453
     13 C           3.7320   -0.4985    0.0000 C.ar    1  UNL1        0.1637
     14 C           3.7320    0.5431    0.0000 C.ar    1  UNL1       -0.0155
     15 C           8.2103    0.8270    0.0000 C.ar    1  UNL1       -0.0109
     16 C           8.7939    0.0223    0.0000 C.ar    1  UNL1        0.0952
     17 C           7.2641    2.5223    0.0000 C.3     1  UNL1        0.0788
     18 C           3.7895   -2.5223    0.0000 C.3     1  UNL1        0.0791
     19 C           2.0000   -0.5052    0.0000 C.3     1  UNL1        0.0790
     20 H           4.6453    1.6769    0.0000 H       1  UNL1        0.0626
     21 H           3.1963    0.8552    0.0000 H       1  UNL1        0.0655
     22 H           8.4029    1.4163    0.0000 H       1  UNL1        0.0657
     23 H           9.4139    0.0223    0.0000 H       1  UNL1        0.1030
     24 H           7.5741    1.9854    0.0000 H       1  UNL1        0.0660
     25 H           7.8010    2.8323    0.0000 H       1  UNL1        0.0660
     26 H           6.9541    3.0592    0.0000 H       1  UNL1        0.0660
     27 H           3.4733   -1.9890    0.0000 H       1  UNL1        0.0660
     28 H           3.2562   -2.8385    0.0000 H       1  UNL1        0.0660
     29 H           4.1057   -3.0556    0.0000 H       1  UNL1        0.0660
     30 H           2.3079    0.0329    0.0000 H       1  UNL1        0.0660
     31 H           1.4619   -0.1973    0.0000 H       1  UNL1        0.0660
     32 H           1.6921   -1.0433    0.0000 H       1  UNL1        0.0660
@<TRIPOS>BOND
     1     1    11   ar
     2     1    16   ar
     3     2     8    1
     4     2    17    1
     5     3    10    1
     6     3    18    1
     7     4    13    1
     8     4    19    1
     9     5     7   ar
    10     5    11   ar
    11     6     7   ar
    12     6     8   ar
    13     6    12   ar
    14     7    10   ar
    15     8     9   ar
    16     9    11   ar
    17     9    15   ar
    18    10    13   ar
    19    12    14   ar
    20    12    20    1
    21    13    14   ar
    22    14    21    1
    23    15    16   ar
    24    15    22    1
    25    16    23    1
    26    17    24    1
    27    17    25    1
    28    17    26    1
    29    18    27    1
    30    18    28    1
    31    18    29    1
    32    19    30    1
    33    19    31    1
    34    19    32    1
