@<TRIPOS>MOLECULE
IMPHY016718
 41 41 0 0 0
SMALL
GASTEIGER

@<TRIPOS>ATOM
      1 O           3.7320    0.7500    0.0000 O.3     1  UNL1       -0.4565
      2 O           5.4641    0.7500    0.0000 O.2     1  UNL1       -0.2502
      3 C           4.5981   -1.7500    0.0000 C.3     1  UNL1       -0.0133
      4 C           4.5981   -0.7500    0.0000 C.3     1  UNL1       -0.0049
      5 C           3.7320   -0.2500    0.0000 C.3     1  UNL1        0.1244
      6 C           3.7320   -2.2500    0.0000 C.3     1  UNL1       -0.0278
      7 C           2.8660   -0.7500    0.0000 C.2     1  UNL1       -0.0365
      8 C           2.8660   -1.7500    0.0000 C.2     1  UNL1       -0.0810
      9 C           5.4641   -2.2500    0.0000 C.2     1  UNL1       -0.0762
     10 C           4.5981    2.2500    0.0000 C.3     1  UNL1        0.0594
     11 C           2.0000   -0.2500    0.0000 C.3     1  UNL1       -0.0403
     12 C           4.5981    1.2500    0.0000 C.2     1  UNL1        0.3131
     13 C           5.4641   -3.2500    0.0000 C.3     1  UNL1       -0.0438
     14 C           4.5981    3.2500    0.0000 C.3     1  UNL1       -0.0499
     15 C           5.5981    2.2500    0.0000 C.3     1  UNL1       -0.0499
     16 C           3.5981    2.2500    0.0000 C.3     1  UNL1       -0.0499
     17 C           6.3301   -1.7500    0.0000 C.2     1  UNL1       -0.0994
     18 H           4.5981   -2.3700    0.0000 H       1  UNL1        0.0350
     19 H           5.2087   -0.8577    0.0000 H       1  UNL1        0.0310
     20 H           4.8101   -0.1674    0.0000 H       1  UNL1        0.0310
     21 H           4.2690    0.0600    0.0000 H       1  UNL1        0.0782
     22 H           3.3335   -2.7250    0.0000 H       1  UNL1        0.0313
     23 H           4.1306   -2.7250    0.0000 H       1  UNL1        0.0313
     24 H           2.3291   -2.0600    0.0000 H       1  UNL1        0.0573
     25 H           2.3100    0.2869    0.0000 H       1  UNL1        0.0276
     26 H           1.4631    0.0600    0.0000 H       1  UNL1        0.0276
     27 H           1.6900   -0.7869    0.0000 H       1  UNL1        0.0276
     28 H           4.8441   -3.2500    0.0000 H       1  UNL1        0.0274
     29 H           5.4641   -3.8700    0.0000 H       1  UNL1        0.0274
     30 H           6.0841   -3.2500    0.0000 H       1  UNL1        0.0274
     31 H           5.2181    3.2500    0.0000 H       1  UNL1        0.0240
     32 H           4.5981    3.8700    0.0000 H       1  UNL1        0.0240
     33 H           3.9781    3.2500    0.0000 H       1  UNL1        0.0240
     34 H           5.5981    1.6300    0.0000 H       1  UNL1        0.0240
     35 H           6.2181    2.2500    0.0000 H       1  UNL1        0.0240
     36 H           5.5981    2.8700    0.0000 H       1  UNL1        0.0240
     37 H           3.5981    2.8700    0.0000 H       1  UNL1        0.0240
     38 H           2.9781    2.2500    0.0000 H       1  UNL1        0.0240
     39 H           3.5981    1.6300    0.0000 H       1  UNL1        0.0240
     40 H           6.8671   -2.0600    0.0000 H       1  UNL1        0.0534
     41 H           6.3301   -1.1300    0.0000 H       1  UNL1        0.0534
@<TRIPOS>BOND
     1     1     5    1
     2     1    12    1
     3     2    12    2
     4     3     4    1
     5     3     6    1
     6     3     9    1
     7     3    18    1
     8     4     5    1
     9     4    19    1
    10     4    20    1
    11     5     7    1
    12     5    21    1
    13     6     8    1
    14     6    22    1
    15     6    23    1
    16     7     8    2
    17     7    11    1
    18     8    24    1
    19     9    13    1
    20     9    17    2
    21    10    12    1
    22    10    14    1
    23    10    15    1
    24    10    16    1
    25    11    25    1
    26    11    26    1
    27    11    27    1
    28    13    28    1
    29    13    29    1
    30    13    30    1
    31    14    31    1
    32    14    32    1
    33    14    33    1
    34    15    34    1
    35    15    35    1
    36    15    36    1
    37    16    37    1
    38    16    38    1
    39    16    39    1
    40    17    40    1
    41    17    41    1
