@<TRIPOS>MOLECULE
IMPHY017942
 18 18 0 0 0
SMALL
GASTEIGER

@<TRIPOS>ATOM
      1 O           4.3660    0.8660    0.0000 O.3     1  UNL1       -0.4523
      2 O           4.3660    2.5981    0.0000 O.2     1  UNL1       -0.2501
      3 C           2.8660    1.7321    0.0000 C.3     1  UNL1        0.0991
      4 C           2.0000    1.2321    0.0000 C.3     1  UNL1        0.0116
      5 C           2.0000    2.2321    0.0000 C.3     1  UNL1        0.0116
      6 C           3.8660    1.7321    0.0000 C.2     1  UNL1        0.3163
      7 C           5.3660    0.8660    0.0000 C.3     1  UNL1        0.1688
      8 C           5.8660    0.0000    0.0000 C.3     1  UNL1        0.0436
      9 C           6.8660    0.0000    0.0000 C.3     1  UNL1        0.0037
     10 C           5.8660    1.7321    0.0000 C.3     1  UNL1        0.0436
     11 C           7.3660   -0.8660    0.0000 C.3     1  UNL1        0.0001
     12 C           8.3660   -0.8660    0.0000 C.3     1  UNL1        0.0000
     13 C           6.8660    1.7321    0.0000 C.3     1  UNL1        0.0037
     14 C           8.8660   -1.7321    0.0000 C.3     1  UNL1        0.0000
     15 C           9.8660   -1.7321    0.0000 C.3     1  UNL1        0.0000
     16 C           7.3660    2.5981    0.0000 C.3     1  UNL1        0.0001
     17 C          10.3660   -2.5981    0.0000 C.3     1  UNL1        0.0000
     18 C          11.3660   -2.5981    0.0000 C.3     1  UNL1        0.0000
@<TRIPOS>BOND
     1     1     6    1
     2     1     7    1
     3     2     6    2
     4     3     4    1
     5     3     5    1
     6     3     6    1
     7     4     5    1
     8     7     8    1
     9     7    10    1
    10     8     9    1
    11     9    11    1
    12    10    13    1
    13    11    12    1
    14    12    14    1
    15    13    16    1
    16    14    15    1
    17    15    17    1
    18    17    18    1
