@<TRIPOS>MOLECULE
IMPHY005737
 101 100 0 0 0
SMALL
GASTEIGER

@<TRIPOS>ATOM
      1 O           2.8660   -0.7500    0.0000 O.2     1  UNL1       -0.2977
      2 C          10.6603    0.7500    0.0000 C.3     1  UNL1       -0.0531
      3 C          11.5263    0.2500    0.0000 C.3     1  UNL1       -0.0531
      4 C           9.7942    0.2500    0.0000 C.3     1  UNL1       -0.0531
      5 C          12.3923    0.7500    0.0000 C.3     1  UNL1       -0.0531
      6 C           8.9282    0.7500    0.0000 C.3     1  UNL1       -0.0531
      7 C          13.2583    0.2500    0.0000 C.3     1  UNL1       -0.0531
      8 C           8.0622    0.2500    0.0000 C.3     1  UNL1       -0.0531
      9 C          14.1244    0.7500    0.0000 C.3     1  UNL1       -0.0531
     10 C           7.1962    0.7500    0.0000 C.3     1  UNL1       -0.0531
     11 C          14.9904    0.2500    0.0000 C.3     1  UNL1       -0.0530
     12 C          24.5167    0.7500    0.0000 C.3     1  UNL1       -0.0531
     13 C          25.3827    0.2500    0.0000 C.3     1  UNL1       -0.0531
     14 C          23.6506    0.2500    0.0000 C.3     1  UNL1       -0.0531
     15 C           6.3301    0.2500    0.0000 C.3     1  UNL1       -0.0530
     16 C          15.8564    0.7500    0.0000 C.3     1  UNL1       -0.0528
     17 C          26.2487    0.7500    0.0000 C.3     1  UNL1       -0.0531
     18 C          22.7846    0.7500    0.0000 C.3     1  UNL1       -0.0530
     19 C          27.1147    0.2500    0.0000 C.3     1  UNL1       -0.0531
     20 C          21.9186    0.2500    0.0000 C.3     1  UNL1       -0.0528
     21 C           5.4641    0.7500    0.0000 C.3     1  UNL1       -0.0527
     22 C          16.7224    0.2500    0.0000 C.3     1  UNL1       -0.0496
     23 C          27.9808    0.7500    0.0000 C.3     1  UNL1       -0.0531
     24 C          21.0526    0.7500    0.0000 C.3     1  UNL1       -0.0496
     25 C           4.5981    0.2500    0.0000 C.3     1  UNL1       -0.0464
     26 C          17.5885    0.7500    0.0000 C.3     1  UNL1       -0.0348
     27 C          28.8468    0.2500    0.0000 C.3     1  UNL1       -0.0533
     28 C          20.1865    0.2500    0.0000 C.3     1  UNL1       -0.0348
     29 C          18.4545    0.2500    0.0000 C.2     1  UNL1       -0.0879
     30 C           3.7320    0.7500    0.0000 C.3     1  UNL1        0.0055
     31 C          19.3205    0.7500    0.0000 C.2     1  UNL1       -0.0879
     32 C          29.7128    0.7500    0.0000 C.3     1  UNL1       -0.0559
     33 C          30.5788    0.2500    0.0000 C.3     1  UNL1       -0.0653
     34 C           2.8660    0.2500    0.0000 C.2     1  UNL1        0.1303
     35 C           2.0000    0.7500    0.0000 C.3     1  UNL1       -0.0061
     36 H          11.0588    1.2250    0.0000 H       1  UNL1        0.0265
     37 H          10.2617    1.2250    0.0000 H       1  UNL1        0.0265
     38 H          11.1278   -0.2249    0.0000 H       1  UNL1        0.0265
     39 H          11.9248   -0.2249    0.0000 H       1  UNL1        0.0265
     40 H           9.3957   -0.2249    0.0000 H       1  UNL1        0.0265
     41 H          10.1928   -0.2249    0.0000 H       1  UNL1        0.0265
     42 H          12.7908    1.2250    0.0000 H       1  UNL1        0.0265
     43 H          11.9938    1.2250    0.0000 H       1  UNL1        0.0265
     44 H           9.3267    1.2250    0.0000 H       1  UNL1        0.0265
     45 H           8.5297    1.2250    0.0000 H       1  UNL1        0.0265
     46 H          12.8598   -0.2249    0.0000 H       1  UNL1        0.0265
     47 H          13.6569   -0.2249    0.0000 H       1  UNL1        0.0265
     48 H           7.6636   -0.2249    0.0000 H       1  UNL1        0.0265
     49 H           8.4607   -0.2249    0.0000 H       1  UNL1        0.0265
     50 H          14.5229    1.2250    0.0000 H       1  UNL1        0.0265
     51 H          13.7258    1.2250    0.0000 H       1  UNL1        0.0265
     52 H           7.5947    1.2250    0.0000 H       1  UNL1        0.0265
     53 H           6.7976    1.2250    0.0000 H       1  UNL1        0.0265
     54 H          14.5919   -0.2249    0.0000 H       1  UNL1        0.0265
     55 H          15.3889   -0.2249    0.0000 H       1  UNL1        0.0265
     56 H          24.9152    1.2250    0.0000 H       1  UNL1        0.0265
     57 H          24.1181    1.2250    0.0000 H       1  UNL1        0.0265
     58 H          24.9842   -0.2249    0.0000 H       1  UNL1        0.0265
     59 H          25.7812   -0.2249    0.0000 H       1  UNL1        0.0265
     60 H          23.2521   -0.2249    0.0000 H       1  UNL1        0.0265
     61 H          24.0492   -0.2249    0.0000 H       1  UNL1        0.0265
     62 H           5.9316   -0.2249    0.0000 H       1  UNL1        0.0265
     63 H           6.7287   -0.2249    0.0000 H       1  UNL1        0.0265
     64 H          16.2549    1.2250    0.0000 H       1  UNL1        0.0265
     65 H          15.4579    1.2250    0.0000 H       1  UNL1        0.0265
     66 H          26.6472    1.2250    0.0000 H       1  UNL1        0.0265
     67 H          25.8502    1.2250    0.0000 H       1  UNL1        0.0265
     68 H          23.1831    1.2250    0.0000 H       1  UNL1        0.0265
     69 H          22.3861    1.2250    0.0000 H       1  UNL1        0.0265
     70 H          26.7162   -0.2249    0.0000 H       1  UNL1        0.0265
     71 H          27.5133   -0.2249    0.0000 H       1  UNL1        0.0265
     72 H          21.5201   -0.2249    0.0000 H       1  UNL1        0.0265
     73 H          22.3171   -0.2249    0.0000 H       1  UNL1        0.0265
     74 H           5.8626    1.2250    0.0000 H       1  UNL1        0.0265
     75 H           5.0656    1.2250    0.0000 H       1  UNL1        0.0265
     76 H          16.3239   -0.2249    0.0000 H       1  UNL1        0.0268
     77 H          17.1210   -0.2249    0.0000 H       1  UNL1        0.0268
     78 H          28.3793    1.2250    0.0000 H       1  UNL1        0.0265
     79 H          27.5822    1.2250    0.0000 H       1  UNL1        0.0265
     80 H          21.4511    1.2250    0.0000 H       1  UNL1        0.0268
     81 H          20.6540    1.2250    0.0000 H       1  UNL1        0.0268
     82 H           4.1996   -0.2249    0.0000 H       1  UNL1        0.0269
     83 H           4.9966   -0.2249    0.0000 H       1  UNL1        0.0269
     84 H          17.9870    1.2250    0.0000 H       1  UNL1        0.0307
     85 H          17.1899    1.2250    0.0000 H       1  UNL1        0.0307
     86 H          28.4483   -0.2249    0.0000 H       1  UNL1        0.0265
     87 H          29.2453   -0.2249    0.0000 H       1  UNL1        0.0265
     88 H          19.7880   -0.2249    0.0000 H       1  UNL1        0.0307
     89 H          20.5851   -0.2249    0.0000 H       1  UNL1        0.0307
     90 H          18.4545   -0.3700    0.0000 H       1  UNL1        0.0569
     91 H           4.1306    1.2250    0.0000 H       1  UNL1        0.0341
     92 H           3.3335    1.2250    0.0000 H       1  UNL1        0.0341
     93 H          19.3205    1.3700    0.0000 H       1  UNL1        0.0569
     94 H          30.1113    1.2250    0.0000 H       1  UNL1        0.0263
     95 H          29.3143    1.2250    0.0000 H       1  UNL1        0.0263
     96 H          30.2688   -0.2869    0.0000 H       1  UNL1        0.0230
     97 H          31.1158   -0.0600    0.0000 H       1  UNL1        0.0230
     98 H          30.8888    0.7869    0.0000 H       1  UNL1        0.0230
     99 H           2.3100    1.2869    0.0000 H       1  UNL1        0.0306
    100 H           1.4631    1.0600    0.0000 H       1  UNL1        0.0306
    101 H           1.6900    0.2131    0.0000 H       1  UNL1        0.0306
@<TRIPOS>BOND
     1     1    34    2
     2     2     3    1
     3     2     4    1
     4     2    36    1
     5     2    37    1
     6     3     5    1
     7     3    38    1
     8     3    39    1
     9     4     6    1
    10     4    40    1
    11     4    41    1
    12     5     7    1
    13     5    42    1
    14     5    43    1
    15     6     8    1
    16     6    44    1
    17     6    45    1
    18     7     9    1
    19     7    46    1
    20     7    47    1
    21     8    10    1
    22     8    48    1
    23     8    49    1
    24     9    11    1
    25     9    50    1
    26     9    51    1
    27    10    15    1
    28    10    52    1
    29    10    53    1
    30    11    16    1
    31    11    54    1
    32    11    55    1
    33    12    13    1
    34    12    14    1
    35    12    56    1
    36    12    57    1
    37    13    17    1
    38    13    58    1
    39    13    59    1
    40    14    18    1
    41    14    60    1
    42    14    61    1
    43    15    21    1
    44    15    62    1
    45    15    63    1
    46    16    22    1
    47    16    64    1
    48    16    65    1
    49    17    19    1
    50    17    66    1
    51    17    67    1
    52    18    20    1
    53    18    68    1
    54    18    69    1
    55    19    23    1
    56    19    70    1
    57    19    71    1
    58    20    24    1
    59    20    72    1
    60    20    73    1
    61    21    25    1
    62    21    74    1
    63    21    75    1
    64    22    26    1
    65    22    76    1
    66    22    77    1
    67    23    27    1
    68    23    78    1
    69    23    79    1
    70    24    28    1
    71    24    80    1
    72    24    81    1
    73    25    30    1
    74    25    82    1
    75    25    83    1
    76    26    29    1
    77    26    84    1
    78    26    85    1
    79    27    32    1
    80    27    86    1
    81    27    87    1
    82    28    31    1
    83    28    88    1
    84    28    89    1
    85    29    31    2
    86    29    90    1
    87    30    34    1
    88    30    91    1
    89    30    92    1
    90    31    93    1
    91    32    33    1
    92    32    94    1
    93    32    95    1
    94    33    96    1
    95    33    97    1
    96    33    98    1
    97    34    35    1
    98    35    99    1
    99    35   100    1
   100    35   101    1
