@<TRIPOS>MOLECULE
IMPHY003189
 80 84 0 0 0
SMALL
GASTEIGER

@<TRIPOS>ATOM
      1 O           2.5357   -1.8922    0.0000 O.3     1  UNL1       -0.3912
      2 O           4.3500   -3.6701    0.0000 O.3     1  UNL1       -0.3944
      3 C           7.0628   -0.3398    0.0000 C.3     1  UNL1       -0.0194
      4 C           5.2868   -0.3467    0.0000 C.3     1  UNL1       -0.0249
      5 C           6.1968    0.1601    0.0000 C.3     1  UNL1       -0.0257
      6 C           7.9288    0.1601    0.0000 C.3     1  UNL1       -0.0051
      7 C           5.2787   -1.3883    0.0000 C.3     1  UNL1       -0.0255
      8 C           7.0789   -1.3814    0.0000 C.3     1  UNL1       -0.0463
      9 C           4.3433   -1.9380    0.0000 C.3     1  UNL1        0.0203
     10 C           6.1808   -1.9091    0.0000 C.3     1  UNL1       -0.0485
     11 C           7.9288    1.1602    0.0000 C.2     1  UNL1       -0.0631
     12 C           4.3599    0.2174    0.0000 C.3     1  UNL1       -0.0447
     13 C           6.1968    1.1602    0.0000 C.3     1  UNL1       -0.0306
     14 C           8.8228   -0.3745    0.0000 C.3     1  UNL1       -0.0426
     15 C           8.8228    1.6948    0.0000 C.3     1  UNL1       -0.0098
     16 C           9.7288    1.1810    0.0000 C.3     1  UNL1       -0.0075
     17 C           7.7056   -1.1059    0.0000 C.3     1  UNL1       -0.0585
     18 C           3.4037   -1.3955    0.0000 C.3     1  UNL1        0.0630
     19 C           5.2945    0.6533    0.0000 C.3     1  UNL1       -0.0590
     20 C           3.4120   -0.3106    0.0000 C.3     1  UNL1       -0.0257
     21 C           7.0628    1.6602    0.0000 C.2     1  UNL1       -0.0836
     22 C           9.7288    0.1393    0.0000 C.3     1  UNL1       -0.0428
     23 C           8.2709   -0.7795    0.0000 C.3     1  UNL1       -0.0553
     24 C           8.7977    2.7795    0.0000 C.3     1  UNL1       -0.0371
     25 C           3.8467   -2.8060    0.0000 C.3     1  UNL1        0.0522
     26 C           4.8466   -2.8021    0.0000 C.3     1  UNL1       -0.0548
     27 C           9.7288    3.3364    0.0000 C.3     1  UNL1       -0.0163
     28 C          10.6726    1.7162    0.0000 C.2     1  UNL1       -0.0809
     29 C          10.5987    0.6877    0.0000 C.3     1  UNL1       -0.0555
     30 C          10.6726    2.8012    0.0000 C.2     1  UNL1       -0.0817
     31 C          10.2188    4.2082    0.0000 C.3     1  UNL1       -0.0563
     32 C           9.2188    4.1966    0.0000 C.3     1  UNL1       -0.0563
     33 H           6.9329    0.5851    0.0000 H       1  UNL1        0.0315
     34 H           5.2820   -2.2383    0.0000 H       1  UNL1        0.0313
     35 H           7.2969   -1.9618    0.0000 H       1  UNL1        0.0271
     36 H           7.6880   -1.2659    0.0000 H       1  UNL1        0.0271
     37 H           5.7835   -2.3851    0.0000 H       1  UNL1        0.0268
     38 H           6.5818   -2.3820    0.0000 H       1  UNL1        0.0268
     39 H           4.7681    0.6840    0.0000 H       1  UNL1        0.0271
     40 H           3.9700    0.6994    0.0000 H       1  UNL1        0.0271
     41 H           5.9847    1.7428    0.0000 H       1  UNL1        0.0310
     42 H           5.5862    1.0525    0.0000 H       1  UNL1        0.0310
     43 H           8.4182   -0.8443    0.0000 H       1  UNL1        0.0274
     44 H           9.2164   -0.8535    0.0000 H       1  UNL1        0.0274
     45 H           9.5522    2.1311    0.0000 H       1  UNL1        0.0354
     46 H           7.2306   -1.5044    0.0000 H       1  UNL1        0.0235
     47 H           8.1041   -1.5808    0.0000 H       1  UNL1        0.0235
     48 H           8.1805   -0.7074    0.0000 H       1  UNL1        0.0235
     49 H           3.4025   -2.0155    0.0000 H       1  UNL1        0.0599
     50 H           5.9145    0.6485    0.0000 H       1  UNL1        0.0235
     51 H           5.2993    1.2733    0.0000 H       1  UNL1        0.0235
     52 H           4.6745    0.6581    0.0000 H       1  UNL1        0.0235
     53 H           3.2075    0.2747    0.0000 H       1  UNL1        0.0290
     54 H           2.8004   -0.4119    0.0000 H       1  UNL1        0.0290
     55 H           7.0628    2.2802    0.0000 H       1  UNL1        0.0572
     56 H           9.9379   -0.4444    0.0000 H       1  UNL1        0.0274
     57 H          10.3397    0.2454    0.0000 H       1  UNL1        0.0274
     58 H           7.6884   -0.9916    0.0000 H       1  UNL1        0.0238
     59 H           8.4830   -1.3621    0.0000 H       1  UNL1        0.0238
     60 H           8.8535   -0.5674    0.0000 H       1  UNL1        0.0238
     61 H           8.5752    3.3582    0.0000 H       1  UNL1        0.0279
     62 H           8.1894    2.6593    0.0000 H       1  UNL1        0.0279
     63 H           3.3702   -2.4093    0.0000 H       1  UNL1        0.0563
     64 H           3.3732   -3.2063    0.0000 H       1  UNL1        0.0563
     65 H           4.3109   -3.1142    0.0000 H       1  UNL1        0.0237
     66 H           5.1587   -3.3378    0.0000 H       1  UNL1        0.0237
     67 H           5.3824   -2.4900    0.0000 H       1  UNL1        0.0237
     68 H          11.2084    1.4041    0.0000 H       1  UNL1        0.0575
     69 H          10.2928    0.1483    0.0000 H       1  UNL1        0.0238
     70 H          11.1380    0.3818    0.0000 H       1  UNL1        0.0238
     71 H          10.9045    1.2270    0.0000 H       1  UNL1        0.0238
     72 H          11.2084    3.1133    0.0000 H       1  UNL1        0.0575
     73 H           2.0000   -1.5801    0.0000 H       1  UNL1        0.2098
     74 H          10.7593    3.9044    0.0000 H       1  UNL1        0.0238
     75 H          10.5226    4.7487    0.0000 H       1  UNL1        0.0238
     76 H           9.6783    4.5120    0.0000 H       1  UNL1        0.0238
     77 H           9.7522    4.5128    0.0000 H       1  UNL1        0.0238
     78 H           8.9027    4.7299    0.0000 H       1  UNL1        0.0238
     79 H           8.6855    3.8804    0.0000 H       1  UNL1        0.0238
     80 H           4.0421   -4.2082    0.0000 H       1  UNL1        0.2094
@<TRIPOS>BOND
     1    18     1    1
     2     1    73    1
     3     2    25    1
     4     2    80    1
     5     3     5    1
     6     3     6    1
     7     3     8    1
     8     3    17    1
     9     4     5    1
    10     4     7    1
    11     4    12    1
    12     4    19    1
    13     5    13    1
    14     5    33    1
    15     6    11    1
    16     6    14    1
    17     6    23    1
    18     7     9    1
    19     7    10    1
    20     7    34    1
    21     8    10    1
    22     8    35    1
    23     8    36    1
    24     9    18    1
    25     9    25    1
    26     9    26    1
    27    10    37    1
    28    10    38    1
    29    11    15    1
    30    11    21    2
    31    12    20    1
    32    12    39    1
    33    12    40    1
    34    13    21    1
    35    13    41    1
    36    13    42    1
    37    14    22    1
    38    14    43    1
    39    14    44    1
    40    15    16    1
    41    15    24    1
    42    15    45    1
    43    16    22    1
    44    16    28    1
    45    16    29    1
    46    17    46    1
    47    17    47    1
    48    17    48    1
    49    18    20    1
    50    18    49    1
    51    19    50    1
    52    19    51    1
    53    19    52    1
    54    20    53    1
    55    20    54    1
    56    21    55    1
    57    22    56    1
    58    22    57    1
    59    23    58    1
    60    23    59    1
    61    23    60    1
    62    24    27    1
    63    24    61    1
    64    24    62    1
    65    25    63    1
    66    25    64    1
    67    26    65    1
    68    26    66    1
    69    26    67    1
    70    27    30    1
    71    27    31    1
    72    27    32    1
    73    28    30    2
    74    28    68    1
    75    29    69    1
    76    29    70    1
    77    29    71    1
    78    30    72    1
    79    31    74    1
    80    31    75    1
    81    31    76    1
    82    32    77    1
    83    32    78    1
    84    32    79    1
