@<TRIPOS>MOLECULE
IMPHY010470
 75 79 0 0 0
SMALL
GASTEIGER

@<TRIPOS>ATOM
      1 O           6.5820    0.3388    0.0000 O.3     1  UNL1       -0.3866
      2 O           7.0152    1.4174    0.0000 O.2     1  UNL1       -0.4216
      3 O           3.5231    1.4521    0.0000 O.3     1  UNL1       -0.4946
      4 O           7.9232   -0.7325    0.0000 O.2     1  UNL1       -0.4215
      5 O           4.6988   -2.4750    0.0000 O.3     1  UNL1       -0.4945
      6 O           5.2552    4.4521    0.0000 O.3     1  UNL1       -0.4943
      7 O           7.3073   -4.1861    0.0000 O.3     1  UNL1       -0.4943
      8 O           8.7853    1.4280    0.0000 O.2     1  UNL1       -0.2452
      9 O           9.5902   -0.1369    0.0000 O.2     1  UNL1       -0.2452
     10 C           4.3116   -1.0197    0.0000 C.3     1  UNL1       -0.0249
     11 C           4.9544   -0.2536    0.0000 C.3     1  UNL1        0.0053
     12 C           4.6125    0.6860    0.0000 C.3     1  UNL1        0.0154
     13 C           3.3269   -0.8461    0.0000 C.3     1  UNL1       -0.0264
     14 C           5.9392   -0.4273    0.0000 C.3     1  UNL1        0.0912
     15 C           2.9848    0.0936    0.0000 C.2     1  UNL1       -0.0754
     16 C           3.6689   -1.7858    0.0000 C.3     1  UNL1       -0.0592
     17 C           5.0777   -1.6625    0.0000 C.3     1  UNL1       -0.0592
     18 C           3.6276    0.8597    0.0000 C.2     1  UNL1       -0.0770
     19 C           5.2552    1.4521    0.0000 C.ar    1  UNL1        0.0445
     20 C           6.2812   -1.3670    0.0000 C.ar    1  UNL1        0.0658
     21 C           2.0000    0.2673    0.0000 C.3     1  UNL1       -0.0438
     22 C           6.1212    1.9521    0.0000 C.ar    1  UNL1        0.1498
     23 C           4.3892    1.9521    0.0000 C.ar    1  UNL1        0.1308
     24 C           7.2660   -1.5406    0.0000 C.ar    1  UNL1        0.1517
     25 C           5.6384   -2.1330    0.0000 C.ar    1  UNL1        0.1327
     26 C           6.1212    2.9521    0.0000 C.ar    1  UNL1        0.0597
     27 C           4.3892    2.9521    0.0000 C.ar    1  UNL1        0.0229
     28 C           7.6081   -2.4803    0.0000 C.ar    1  UNL1        0.0598
     29 C           5.2552    3.4521    0.0000 C.ar    1  UNL1        0.1342
     30 C           5.9805   -3.0727    0.0000 C.ar    1  UNL1        0.0229
     31 C           6.9653   -3.2464    0.0000 C.ar    1  UNL1        0.1342
     32 C           7.0152    3.4868    0.0000 C.ar    1  UNL1       -0.0408
     33 C           8.6310   -2.6770    0.0000 C.ar    1  UNL1       -0.0408
     34 C           7.9212    1.9313    0.0000 C.ar    1  UNL1        0.3372
     35 C           7.9212    2.9729    0.0000 C.ar    1  UNL1        0.0237
     36 C           8.9504   -0.9054    0.0000 C.ar    1  UNL1        0.3372
     37 C           2.6571    1.9521    0.0000 C.3     1  UNL1        0.0788
     38 C           9.3066   -1.8842    0.0000 C.ar    1  UNL1        0.0237
     39 C           4.5251   -3.4598    0.0000 C.3     1  UNL1        0.0788
     40 C           4.3892    4.9521    0.0000 C.3     1  UNL1        0.0788
     41 C           6.6645   -4.9521    0.0000 C.3     1  UNL1        0.0788
     42 H           5.2451   -1.0524    0.0000 H       1  UNL1        0.0343
     43 H           5.4496    0.5384    0.0000 H       1  UNL1        0.0397
     44 H           2.7163   -0.9538    0.0000 H       1  UNL1        0.0315
     45 H           3.3269   -1.4661    0.0000 H       1  UNL1        0.0315
     46 H           6.5498   -0.5349    0.0000 H       1  UNL1        0.0649
     47 H           3.1939   -1.3873    0.0000 H       1  UNL1        0.0235
     48 H           3.2704   -2.2608    0.0000 H       1  UNL1        0.0235
     49 H           4.1439   -2.1843    0.0000 H       1  UNL1        0.0235
     50 H           4.6791   -2.1374    0.0000 H       1  UNL1        0.0235
     51 H           5.5526   -2.0610    0.0000 H       1  UNL1        0.0235
     52 H           5.4762   -1.1875    0.0000 H       1  UNL1        0.0235
     53 H           3.4155    1.4423    0.0000 H       1  UNL1        0.0578
     54 H           2.1077    0.8779    0.0000 H       1  UNL1        0.0274
     55 H           1.3894    0.3749    0.0000 H       1  UNL1        0.0274
     56 H           1.8923   -0.3433    0.0000 H       1  UNL1        0.0274
     57 H           7.1926    0.2311    0.0000 H       1  UNL1        0.2102
     58 H           3.8522    3.2621    0.0000 H       1  UNL1        0.0691
     59 H           5.5819   -3.5477    0.0000 H       1  UNL1        0.0691
     60 H           7.0080    4.1067    0.0000 H       1  UNL1        0.0628
     61 H           8.8363   -3.2620    0.0000 H       1  UNL1        0.0628
     62 H           8.4570    3.2850    0.0000 H       1  UNL1        0.0689
     63 H           2.9671    2.4890    0.0000 H       1  UNL1        0.0660
     64 H           2.1202    2.2621    0.0000 H       1  UNL1        0.0660
     65 H           2.3471    1.4152    0.0000 H       1  UNL1        0.0660
     66 H           9.9168   -1.9942    0.0000 H       1  UNL1        0.0689
     67 H           3.9145   -3.3521    0.0000 H       1  UNL1        0.0660
     68 H           4.4174   -4.0704    0.0000 H       1  UNL1        0.0660
     69 H           5.1356   -3.5675    0.0000 H       1  UNL1        0.0660
     70 H           4.6992    5.4890    0.0000 H       1  UNL1        0.0660
     71 H           3.8522    5.2621    0.0000 H       1  UNL1        0.0660
     72 H           4.0792    4.4152    0.0000 H       1  UNL1        0.0660
     73 H           6.1896   -4.5536    0.0000 H       1  UNL1        0.0660
     74 H           6.2660   -5.4271    0.0000 H       1  UNL1        0.0660
     75 H           7.1395   -5.3506    0.0000 H       1  UNL1        0.0660
@<TRIPOS>BOND
     1    14     1    1
     2     1    57    1
     3     2    22   ar
     4     2    34   ar
     5     3    23    1
     6     3    37    1
     7     4    24   ar
     8     4    36   ar
     9     5    25    1
    10     5    39    1
    11     6    29    1
    12     6    40    1
    13     7    31    1
    14     7    41    1
    15     8    34    2
    16     9    36    2
    17    10    11    1
    18    10    13    1
    19    10    16    1
    20    10    17    1
    21    11    12    1
    22    11    14    1
    23    11    42    1
    24    12    18    1
    25    12    19    1
    26    12    43    1
    27    13    15    1
    28    13    44    1
    29    13    45    1
    30    14    20    1
    31    14    46    1
    32    15    18    2
    33    15    21    1
    34    16    47    1
    35    16    48    1
    36    16    49    1
    37    17    50    1
    38    17    51    1
    39    17    52    1
    40    18    53    1
    41    19    22   ar
    42    19    23   ar
    43    20    24   ar
    44    20    25   ar
    45    21    54    1
    46    21    55    1
    47    21    56    1
    48    22    26   ar
    49    23    27   ar
    50    24    28   ar
    51    25    30   ar
    52    26    29   ar
    53    26    32   ar
    54    27    29   ar
    55    27    58    1
    56    28    31   ar
    57    28    33   ar
    58    30    31   ar
    59    30    59    1
    60    32    35   ar
    61    32    60    1
    62    33    38   ar
    63    33    61    1
    64    34    35   ar
    65    35    62    1
    66    36    38   ar
    67    37    63    1
    68    37    64    1
    69    37    65    1
    70    38    66    1
    71    39    67    1
    72    39    68    1
    73    39    69    1
    74    40    70    1
    75    40    71    1
    76    40    72    1
    77    41    73    1
    78    41    74    1
    79    41    75    1
