@<TRIPOS>MOLECULE
IMPHY002527
 59 62 0 0 0
SMALL
GASTEIGER

@<TRIPOS>ATOM
      1 O           5.1350   -0.6087    0.0000 O.3     1  UNL1       -0.3313
      2 O           6.8671   -0.6087    0.0000 O.3     1  UNL1       -0.4599
      3 O           5.1350   -3.6087    0.0000 O.3     1  UNL1       -0.3864
      4 O           3.4030   -2.6087    0.0000 O.3     1  UNL1       -0.3865
      5 O           6.8671   -2.6087    0.0000 O.3     1  UNL1       -0.3829
      6 O           8.6270    2.4259    0.0000 O.3     1  UNL1       -0.4792
      7 O           2.5369   -1.1087    0.0000 O.3     1  UNL1       -0.3924
      8 O           6.8671    3.3913    0.0000 O.3     1  UNL1       -0.4885
      9 O           8.6155   -0.6433    0.0000 O.2     1  UNL1       -0.2917
     10 O           5.1350    2.3913    0.0000 O.3     1  UNL1       -0.4912
     11 C           5.1350   -2.6087    0.0000 C.3     1  UNL1        0.1152
     12 C           4.2690   -2.1087    0.0000 C.3     1  UNL1        0.1120
     13 C           6.0010   -2.1087    0.0000 C.3     1  UNL1        0.1454
     14 C           4.2690   -1.1087    0.0000 C.3     1  UNL1        0.1140
     15 C           6.0010   -1.1087    0.0000 C.3     1  UNL1        0.2308
     16 C           3.4030   -0.6087    0.0000 C.3     1  UNL1        0.0731
     17 C           6.8671    0.3913    0.0000 C.ar    1  UNL1        0.1417
     18 C           7.7331    0.8913    0.0000 C.ar    1  UNL1        0.1047
     19 C           9.5331    1.9121    0.0000 C.3     1  UNL1        0.1323
     20 C           9.5331    0.8704    0.0000 C.3     1  UNL1        0.0520
     21 C           7.7331    1.8913    0.0000 C.ar    1  UNL1        0.1805
     22 C           8.6270    0.3566    0.0000 C.2     1  UNL1        0.1742
     23 C           6.0010    0.8913    0.0000 C.ar    1  UNL1        0.0265
     24 C           6.8671    2.3913    0.0000 C.ar    1  UNL1        0.2045
     25 C          10.3972    2.4154    0.0000 C.ar    1  UNL1       -0.0069
     26 C           6.0010    1.8913    0.0000 C.ar    1  UNL1        0.1687
     27 C          11.2651    1.9188    0.0000 C.ar    1  UNL1       -0.0551
     28 C          10.3933    3.4154    0.0000 C.ar    1  UNL1       -0.0551
     29 C          12.1292    2.4221    0.0000 C.ar    1  UNL1       -0.0614
     30 C          11.2574    3.9187    0.0000 C.ar    1  UNL1       -0.0614
     31 C          12.1254    3.4221    0.0000 C.ar    1  UNL1       -0.0617
     32 C           6.0010    3.8913    0.0000 C.3     1  UNL1        0.0791
     33 C           4.2690    1.8913    0.0000 C.3     1  UNL1        0.0790
     34 H           5.6720   -2.9187    0.0000 H       1  UNL1        0.0648
     35 H           4.2690   -2.7287    0.0000 H       1  UNL1        0.0647
     36 H           6.5380   -1.7987    0.0000 H       1  UNL1        0.0683
     37 H           4.2690   -0.4887    0.0000 H       1  UNL1        0.0647
     38 H           6.0010   -0.4887    0.0000 H       1  UNL1        0.1084
     39 H           3.8015   -0.1338    0.0000 H       1  UNL1        0.0584
     40 H           3.0044   -0.1338    0.0000 H       1  UNL1        0.0584
     41 H           4.5981   -3.9187    0.0000 H       1  UNL1        0.2100
     42 H           3.4030   -3.2287    0.0000 H       1  UNL1        0.2100
     43 H           6.8671   -3.2287    0.0000 H       1  UNL1        0.2102
     44 H           9.5295    2.5321    0.0000 H       1  UNL1        0.0789
     45 H           9.7422    0.2868    0.0000 H       1  UNL1        0.0385
     46 H          10.1440    0.9765    0.0000 H       1  UNL1        0.0385
     47 H           5.4641    0.5813    0.0000 H       1  UNL1        0.0692
     48 H           2.0000   -0.7987    0.0000 H       1  UNL1        0.2095
     49 H          11.2675    1.2988    0.0000 H       1  UNL1        0.0621
     50 H           9.8552    3.7233    0.0000 H       1  UNL1        0.0621
     51 H          12.6674    2.1142    0.0000 H       1  UNL1        0.0618
     52 H          11.2550    4.5387    0.0000 H       1  UNL1        0.0618
     53 H          12.6611    3.7342    0.0000 H       1  UNL1        0.0618
     54 H           6.3110    4.4282    0.0000 H       1  UNL1        0.0660
     55 H           5.4641    4.2013    0.0000 H       1  UNL1        0.0660
     56 H           5.6910    3.3543    0.0000 H       1  UNL1        0.0660
     57 H           3.9590    2.4282    0.0000 H       1  UNL1        0.0660
     58 H           3.7320    1.5813    0.0000 H       1  UNL1        0.0660
     59 H           4.5790    1.3543    0.0000 H       1  UNL1        0.0660
@<TRIPOS>BOND
     1     1    14    1
     2     1    15    1
     3    15     2    1
     4     2    17    1
     5    11     3    1
     6     3    41    1
     7    12     4    1
     8     4    42    1
     9    13     5    1
    10     5    43    1
    11     6    19    1
    12     6    21    1
    13     7    16    1
    14     7    48    1
    15     8    24    1
    16     8    32    1
    17     9    22    2
    18    10    26    1
    19    10    33    1
    20    11    12    1
    21    11    13    1
    22    11    34    1
    23    12    14    1
    24    12    35    1
    25    13    15    1
    26    13    36    1
    27    14    16    1
    28    14    37    1
    29    15    38    1
    30    16    39    1
    31    16    40    1
    32    17    18   ar
    33    17    23   ar
    34    18    21   ar
    35    18    22    1
    36    19    20    1
    37    19    25    1
    38    19    44    1
    39    20    22    1
    40    20    45    1
    41    20    46    1
    42    21    24   ar
    43    23    26   ar
    44    23    47    1
    45    24    26   ar
    46    25    27   ar
    47    25    28   ar
    48    27    29   ar
    49    27    49    1
    50    28    30   ar
    51    28    50    1
    52    29    31   ar
    53    29    51    1
    54    30    31   ar
    55    30    52    1
    56    31    53    1
    57    32    54    1
    58    32    55    1
    59    32    56    1
    60    33    57    1
    61    33    58    1
    62    33    59    1
