@<TRIPOS>MOLECULE
IMPHY014137
 39 40 0 0 0
SMALL
GASTEIGER

@<TRIPOS>ATOM
      1 O           6.0070   -1.1885    0.0000 O.3     1  UNL1       -0.3836
      2 O           6.8490    0.2699    0.0000 O.2     1  UNL1       -0.2896
      3 C           4.0835   -1.7134    0.0000 C.3     1  UNL1       -0.0282
      4 C           4.4245   -0.7645    0.0000 C.3     1  UNL1        0.0039
      5 C           3.4848   -0.4225    0.0000 C.3     1  UNL1       -0.0136
      6 C           3.1361   -1.3685    0.0000 C.3     1  UNL1       -0.0406
      7 C           5.3642   -0.4225    0.0000 C.3     1  UNL1        0.1210
      8 C           3.7434   -2.6538    0.0000 C.3     1  UNL1       -0.0594
      9 C           5.0239   -2.0535    0.0000 C.3     1  UNL1       -0.0594
     10 C           2.9848    0.4436    0.0000 C.2     1  UNL1       -0.0728
     11 C           3.1585    1.4284    0.0000 C.3     1  UNL1       -0.0283
     12 C           5.8642    0.4436    0.0000 C.2     1  UNL1        0.1872
     13 C           2.0000    0.2699    0.0000 C.2     1  UNL1       -0.0992
     14 C           3.9245    2.0712    0.0000 C.3     1  UNL1       -0.0304
     15 C           5.6905    1.4284    0.0000 C.2     1  UNL1       -0.0093
     16 C           4.9245    2.0712    0.0000 C.2     1  UNL1       -0.0774
     17 C           6.5566    1.9284    0.0000 C.3     1  UNL1       -0.0366
     18 H           5.0268   -1.3643    0.0000 H       1  UNL1        0.0341
     19 H           2.6379   -0.4948    0.0000 H       1  UNL1        0.0349
     20 H           2.5540   -1.1549    0.0000 H       1  UNL1        0.0276
     21 H           2.9232   -1.9508    0.0000 H       1  UNL1        0.0276
     22 H           5.9818   -0.3684    0.0000 H       1  UNL1        0.0679
     23 H           3.1604   -2.4429    0.0000 H       1  UNL1        0.0235
     24 H           3.5326   -3.2368    0.0000 H       1  UNL1        0.0235
     25 H           4.3265   -2.8646    0.0000 H       1  UNL1        0.0235
     26 H           4.8131   -2.6365    0.0000 H       1  UNL1        0.0235
     27 H           5.6070   -2.2643    0.0000 H       1  UNL1        0.0235
     28 H           5.2348   -1.4704    0.0000 H       1  UNL1        0.0235
     29 H           2.9129    1.9977    0.0000 H       1  UNL1        0.0313
     30 H           2.5426    1.3564    0.0000 H       1  UNL1        0.0313
     31 H           6.6176   -1.0808    0.0000 H       1  UNL1        0.2104
     32 H           1.6015    0.7449    0.0000 H       1  UNL1        0.0534
     33 H           1.7880   -0.3127    0.0000 H       1  UNL1        0.0534
     34 H           4.1023    2.6651    0.0000 H       1  UNL1        0.0311
     35 H           3.4065    2.4118    0.0000 H       1  UNL1        0.0311
     36 H           5.1366    2.6538    0.0000 H       1  UNL1        0.0576
     37 H           6.8666    1.3914    0.0000 H       1  UNL1        0.0279
     38 H           7.0935    2.2384    0.0000 H       1  UNL1        0.0279
     39 H           6.2466    2.4653    0.0000 H       1  UNL1        0.0279
@<TRIPOS>BOND
     1     7     1    1
     2     1    31    1
     3     2    12    2
     4     3     4    1
     5     3     6    1
     6     3     8    1
     7     3     9    1
     8     4     5    1
     9     4     7    1
    10     4    18    1
    11     5     6    1
    12     5    10    1
    13     5    19    1
    14     6    20    1
    15     6    21    1
    16     7    12    1
    17     7    22    1
    18     8    23    1
    19     8    24    1
    20     8    25    1
    21     9    26    1
    22     9    27    1
    23     9    28    1
    24    10    11    1
    25    10    13    2
    26    11    14    1
    27    11    29    1
    28    11    30    1
    29    12    15    1
    30    13    32    1
    31    13    33    1
    32    14    16    1
    33    14    34    1
    34    14    35    1
    35    15    16    2
    36    15    17    1
    37    16    36    1
    38    17    37    1
    39    17    38    1
    40    17    39    1
