@<TRIPOS>MOLECULE
IMPHY010578
 35 37 0 0 0
SMALL
GASTEIGER

@<TRIPOS>ATOM
      1 O           6.0682   -0.9254    0.0000 O.3     1  UNL1       -0.4828
      2 O           6.0682    2.0746    0.0000 O.2     1  UNL1       -0.2917
      3 O           4.3198    2.1092    0.0000 O.3     1  UNL1       -0.5058
      4 O          10.3984   -2.4254    0.0000 O.3     1  UNL1       -0.4951
      5 O           2.5381   -0.9495    0.0000 O.3     1  UNL1       -0.5065
      6 C           6.9343   -0.4254    0.0000 C.3     1  UNL1        0.1322
      7 C           6.9343    0.5746    0.0000 C.3     1  UNL1        0.0520
      8 C           7.8003   -0.9254    0.0000 C.ar    1  UNL1       -0.0067
      9 C           5.2022    0.5746    0.0000 C.ar    1  UNL1        0.1007
     10 C           6.0682    1.0746    0.0000 C.2     1  UNL1        0.1740
     11 C           5.2022   -0.4254    0.0000 C.ar    1  UNL1        0.1389
     12 C           4.3083    1.1093    0.0000 C.ar    1  UNL1        0.1343
     13 C           7.8003   -1.9254    0.0000 C.ar    1  UNL1       -0.0516
     14 C           8.6663   -0.4254    0.0000 C.ar    1  UNL1       -0.0516
     15 C           4.3083   -0.9601    0.0000 C.ar    1  UNL1        0.0225
     16 C           3.4022    0.5954    0.0000 C.ar    1  UNL1        0.0222
     17 C           3.4022   -0.4462    0.0000 C.ar    1  UNL1        0.1238
     18 C           8.6663   -2.4254    0.0000 C.ar    1  UNL1       -0.0196
     19 C           9.5323   -0.9254    0.0000 C.ar    1  UNL1       -0.0196
     20 C           9.5323   -1.9254    0.0000 C.ar    1  UNL1        0.1201
     21 C          11.2644   -1.9254    0.0000 C.3     1  UNL1        0.0788
     22 H           6.9343   -1.0454    0.0000 H       1  UNL1        0.0789
     23 H           7.5449    0.4669    0.0000 H       1  UNL1        0.0385
     24 H           7.1463    1.1572    0.0000 H       1  UNL1        0.0385
     25 H           7.2634   -2.2354    0.0000 H       1  UNL1        0.0623
     26 H           8.6663    0.1946    0.0000 H       1  UNL1        0.0623
     27 H           4.3154   -1.5800    0.0000 H       1  UNL1        0.0691
     28 H           2.8665    0.9075    0.0000 H       1  UNL1        0.0691
     29 H           8.6663   -3.0454    0.0000 H       1  UNL1        0.0654
     30 H          10.0693   -0.6154    0.0000 H       1  UNL1        0.0654
     31 H           3.7865    2.4254    0.0000 H       1  UNL1        0.2922
     32 H           2.0000   -0.6416    0.0000 H       1  UNL1        0.2921
     33 H          11.5744   -2.4623    0.0000 H       1  UNL1        0.0660
     34 H          11.8013   -1.6154    0.0000 H       1  UNL1        0.0660
     35 H          10.9544   -1.3885    0.0000 H       1  UNL1        0.0660
@<TRIPOS>BOND
     1     1     6    1
     2     1    11    1
     3     2    10    2
     4     3    12    1
     5     3    31    1
     6     4    20    1
     7     4    21    1
     8     5    17    1
     9     5    32    1
    10     6     7    1
    11     6     8    1
    12     6    22    1
    13     7    10    1
    14     7    23    1
    15     7    24    1
    16     8    13   ar
    17     8    14   ar
    18     9    10    1
    19     9    11   ar
    20     9    12   ar
    21    11    15   ar
    22    12    16   ar
    23    13    18   ar
    24    13    25    1
    25    14    19   ar
    26    14    26    1
    27    15    17   ar
    28    15    27    1
    29    16    17   ar
    30    16    28    1
    31    18    20   ar
    32    18    29    1
    33    19    20   ar
    34    19    30    1
    35    21    33    1
    36    21    34    1
    37    21    35    1
