@<TRIPOS>MOLECULE
IMPHY002645
 53 55 0 0 0
SMALL
GASTEIGER

@<TRIPOS>ATOM
      1 O           2.5381   -2.0095    0.0000 O.3     1  UNL1       -0.3837
      2 O           6.9464    2.5839    0.0000 O.3     1  UNL1       -0.3906
      3 O           2.5381    0.0388    0.0000 O.2     1  UNL1       -0.2946
      4 C           5.2022   -0.4854    0.0000 C.3     1  UNL1       -0.0153
      5 C           5.2022   -1.4854    0.0000 C.3     1  UNL1       -0.0265
      6 C           6.0682    0.0146    0.0000 C.3     1  UNL1       -0.0114
      7 C           4.3083   -2.0200    0.0000 C.3     1  UNL1        0.0013
      8 C           6.0682   -1.9854    0.0000 C.3     1  UNL1       -0.0454
      9 C           4.3083    0.0493    0.0000 C.3     1  UNL1        0.0147
     10 C           6.9343   -0.4854    0.0000 C.2     1  UNL1       -0.0688
     11 C           6.0522    1.0561    0.0000 C.3     1  UNL1       -0.0187
     12 C           6.9343   -1.4854    0.0000 C.3     1  UNL1       -0.0311
     13 C           3.4022   -1.5062    0.0000 C.3     1  UNL1        0.1183
     14 C           5.2022    0.5146    0.0000 C.3     1  UNL1       -0.0584
     15 C           3.4022   -0.4646    0.0000 C.2     1  UNL1        0.1626
     16 C           6.9502    1.5839    0.0000 C.3     1  UNL1        0.0680
     17 C           7.8523    1.0631    0.0000 C.3     1  UNL1        0.0299
     18 C           3.8183   -2.8918    0.0000 C.3     1  UNL1       -0.0568
     19 C           4.8183   -2.8802    0.0000 C.3     1  UNL1       -0.0568
     20 C           7.8443    0.0215    0.0000 C.2     1  UNL1       -0.0725
     21 C           8.8523    1.0592    0.0000 C.3     1  UNL1       -0.0502
     22 C           8.3556    1.9272    0.0000 C.2     1  UNL1       -0.0791
     23 C           9.3556    1.9233    0.0000 C.2     1  UNL1       -0.1017
     24 H           5.2070   -2.1054    0.0000 H       1  UNL1        0.0313
     25 H           6.6028    0.3287    0.0000 H       1  UNL1        0.0352
     26 H           5.6697   -2.4603    0.0000 H       1  UNL1        0.0271
     27 H           6.4668   -2.4603    0.0000 H       1  UNL1        0.0271
     28 H           4.7129    0.5191    0.0000 H       1  UNL1        0.0348
     29 H           3.9147    0.5283    0.0000 H       1  UNL1        0.0348
     30 H           5.8342    1.6365    0.0000 H       1  UNL1        0.0296
     31 H           5.4431    0.9406    0.0000 H       1  UNL1        0.0296
     32 H           7.1463   -2.0680    0.0000 H       1  UNL1        0.0310
     33 H           7.5449   -1.3777    0.0000 H       1  UNL1        0.0310
     34 H           2.8647   -1.1972    0.0000 H       1  UNL1        0.0678
     35 H           5.8222    0.5146    0.0000 H       1  UNL1        0.0235
     36 H           5.2022    1.1346    0.0000 H       1  UNL1        0.0235
     37 H           4.5822    0.5146    0.0000 H       1  UNL1        0.0235
     38 H           6.4115    1.8908    0.0000 H       1  UNL1        0.0605
     39 H           3.2778   -2.5880    0.0000 H       1  UNL1        0.0236
     40 H           3.5146   -3.4323    0.0000 H       1  UNL1        0.0236
     41 H           4.2850   -3.1964    0.0000 H       1  UNL1        0.0236
     42 H           5.1344   -3.4136    0.0000 H       1  UNL1        0.0236
     43 H           5.3516   -2.5640    0.0000 H       1  UNL1        0.0236
     44 H           4.3588   -3.1956    0.0000 H       1  UNL1        0.0236
     45 H           8.3776   -0.2947    0.0000 H       1  UNL1        0.0581
     46 H           8.8499    0.4392    0.0000 H       1  UNL1        0.0242
     47 H           9.4723    1.0568    0.0000 H       1  UNL1        0.0242
     48 H           8.8547    1.6792    0.0000 H       1  UNL1        0.0242
     49 H           2.0000   -1.7016    0.0000 H       1  UNL1        0.2104
     50 H           8.0477    2.4653    0.0000 H       1  UNL1        0.0576
     51 H           6.4082    2.8918    0.0000 H       1  UNL1        0.2098
     52 H           9.6636    1.3852    0.0000 H       1  UNL1        0.0532
     53 H           9.6677    2.4590    0.0000 H       1  UNL1        0.0532
@<TRIPOS>BOND
     1     1    13    1
     2     1    49    1
     3     2    16    1
     4     2    51    1
     5     3    15    2
     6     4     5    1
     7     4     6    1
     8     4     9    1
     9     4    14    1
    10     5     7    1
    11     5     8    1
    12     5    24    1
    13     6    10    1
    14     6    11    1
    15     6    25    1
    16     7    13    1
    17     7    18    1
    18     7    19    1
    19     8    12    1
    20     8    26    1
    21     8    27    1
    22     9    15    1
    23     9    28    1
    24     9    29    1
    25    10    12    1
    26    10    20    2
    27    11    16    1
    28    11    30    1
    29    11    31    1
    30    12    32    1
    31    12    33    1
    32    13    15    1
    33    13    34    1
    34    14    35    1
    35    14    36    1
    36    14    37    1
    37    16    17    1
    38    16    38    1
    39    17    20    1
    40    17    21    1
    41    17    22    1
    42    18    39    1
    43    18    40    1
    44    18    44    1
    45    19    41    1
    46    19    42    1
    47    19    43    1
    48    20    45    1
    49    21    46    1
    50    21    47    1
    51    21    48    1
    52    22    23    2
    53    22    50    1
    54    23    52    1
    55    23    53    1
