@<TRIPOS>MOLECULE
IMPHY016192
 41 42 0 0 0
SMALL
GASTEIGER

@<TRIPOS>ATOM
      1 O           2.5369   -1.2621    0.0000 O.3     1  UNL1       -0.3914
      2 O           9.5312    0.7688    0.0000 O.3     1  UNL1       -0.3907
      3 C           5.1350   -0.7621    0.0000 C.3     1  UNL1       -0.0084
      4 C           5.1350    0.2379    0.0000 C.2     1  UNL1       -0.0639
      5 C           6.0290   -1.2967    0.0000 C.3     1  UNL1       -0.0433
      6 C           4.2690   -1.2621    0.0000 C.3     1  UNL1       -0.0174
      7 C           6.9350    0.2587    0.0000 C.3     1  UNL1       -0.0143
      8 C           6.0290    0.7726    0.0000 C.3     1  UNL1       -0.0244
      9 C           6.9350   -0.7829    0.0000 C.3     1  UNL1       -0.0454
     10 C           3.4030   -0.7621    0.0000 C.3     1  UNL1        0.0597
     11 C           4.2690    0.7379    0.0000 C.2     1  UNL1       -0.0704
     12 C           3.4030    0.2379    0.0000 C.3     1  UNL1       -0.0056
     13 C           5.1350   -1.7621    0.0000 C.3     1  UNL1       -0.0558
     14 C           7.7991    0.7621    0.0000 C.2     1  UNL1       -0.0482
     15 C           4.2690    1.7379    0.0000 C.3     1  UNL1       -0.0434
     16 C           8.6671    0.2654    0.0000 C.3     1  UNL1        0.0653
     17 C           7.7953    1.7621    0.0000 C.2     1  UNL1       -0.0970
     18 H           5.6244   -1.7665    0.0000 H       1  UNL1        0.0274
     19 H           6.4226   -1.7758    0.0000 H       1  UNL1        0.0274
     20 H           3.8705   -1.7370    0.0000 H       1  UNL1        0.0298
     21 H           4.6675   -1.7370    0.0000 H       1  UNL1        0.0298
     22 H           7.4726   -0.0502    0.0000 H       1  UNL1        0.0349
     23 H           6.4226    1.2516    0.0000 H       1  UNL1        0.0316
     24 H           5.6244    1.2424    0.0000 H       1  UNL1        0.0316
     25 H           7.1441   -1.3666    0.0000 H       1  UNL1        0.0271
     26 H           7.5459   -0.6768    0.0000 H       1  UNL1        0.0271
     27 H           3.4030   -1.3821    0.0000 H       1  UNL1        0.0596
     28 H           3.1909    0.8205    0.0000 H       1  UNL1        0.0335
     29 H           2.7924    0.1303    0.0000 H       1  UNL1        0.0335
     30 H           4.5150   -1.7621    0.0000 H       1  UNL1        0.0238
     31 H           5.1350   -2.3821    0.0000 H       1  UNL1        0.0238
     32 H           5.7550   -1.7621    0.0000 H       1  UNL1        0.0238
     33 H           4.8890    1.7379    0.0000 H       1  UNL1        0.0274
     34 H           4.2690    2.3579    0.0000 H       1  UNL1        0.0274
     35 H           3.6490    1.7379    0.0000 H       1  UNL1        0.0274
     36 H           2.0000   -0.9521    0.0000 H       1  UNL1        0.2098
     37 H           8.2704   -0.2111    0.0000 H       1  UNL1        0.0604
     38 H           9.0674   -0.2080    0.0000 H       1  UNL1        0.0604
     39 H           8.3310    2.0741    0.0000 H       1  UNL1        0.0535
     40 H           7.2571    2.0700    0.0000 H       1  UNL1        0.0535
     41 H          10.0693    0.4608    0.0000 H       1  UNL1        0.2098
@<TRIPOS>BOND
     1     1    10    1
     2     1    36    1
     3     2    16    1
     4     2    41    1
     5     3     4    1
     6     3     5    1
     7     3     6    1
     8     3    13    1
     9     4     8    1
    10     4    11    2
    11     5     9    1
    12     5    18    1
    13     5    19    1
    14     6    10    1
    15     6    20    1
    16     6    21    1
    17     7     8    1
    18     7     9    1
    19     7    14    1
    20     7    22    1
    21     8    23    1
    22     8    24    1
    23     9    25    1
    24     9    26    1
    25    10    12    1
    26    10    27    1
    27    11    12    1
    28    11    15    1
    29    12    28    1
    30    12    29    1
    31    13    30    1
    32    13    31    1
    33    13    32    1
    34    14    16    1
    35    14    17    2
    36    15    33    1
    37    15    34    1
    38    15    35    1
    39    16    37    1
    40    16    38    1
    41    17    39    1
    42    17    40    1
