@<TRIPOS>MOLECULE
IMPHY012045
 44 45 0 0 0
SMALL
GASTEIGER

@<TRIPOS>ATOM
      1 O           8.0622    1.5440    0.0000 O.2     1  UNL1       -0.2652
      2 O           6.3301   -1.4560    0.0000 O.2     1  UNL1       -0.2462
      3 O           2.8660    1.5440    0.0000 O.2     1  UNL1       -0.2977
      4 N           7.1962    0.0440    0.0000 N.ar    1  UNL1       -0.2591
      5 N           9.8744    0.3487    0.0000 N.ar    1  UNL1       -0.3246
      6 N           8.0622   -1.4560    0.0000 N.ar    1  UNL1       -0.2796
      7 N           9.8744   -1.2607    0.0000 N.ar    1  UNL1       -0.2177
      8 C           6.3301    0.5440    0.0000 C.3     1  UNL1        0.0310
      9 C           8.9282    0.0440    0.0000 C.ar    1  UNL1        0.1515
     10 C           5.4641    0.0440    0.0000 C.3     1  UNL1       -0.0343
     11 C           8.9282   -0.9560    0.0000 C.ar    1  UNL1        0.1678
     12 C           8.0622    0.5440    0.0000 C.ar    1  UNL1        0.2824
     13 C           4.5981    0.5440    0.0000 C.3     1  UNL1       -0.0448
     14 C          10.1851    1.2993    0.0000 C.3     1  UNL1        0.0247
     15 C           7.1962   -0.9560    0.0000 C.ar    1  UNL1        0.3333
     16 C          10.4580   -0.4560    0.0000 C.ar    1  UNL1        0.0989
     17 C           3.7320    0.0440    0.0000 C.3     1  UNL1        0.0056
     18 C          11.1636    1.5055    0.0000 C.3     1  UNL1       -0.0378
     19 C           8.0622   -2.4560    0.0000 C.3     1  UNL1        0.0181
     20 C          11.4743    2.4560    0.0000 C.3     1  UNL1       -0.0637
     21 C           2.8660    0.5440    0.0000 C.2     1  UNL1        0.1303
     22 C           2.0000    0.0440    0.0000 C.3     1  UNL1       -0.0061
     23 H           6.7287    1.0190    0.0000 H       1  UNL1        0.0494
     24 H           5.9316    1.0190    0.0000 H       1  UNL1        0.0494
     25 H           5.0656   -0.4309    0.0000 H       1  UNL1        0.0283
     26 H           5.8626   -0.4309    0.0000 H       1  UNL1        0.0283
     27 H           4.9966    1.0190    0.0000 H       1  UNL1        0.0270
     28 H           4.1996    1.0190    0.0000 H       1  UNL1        0.0270
     29 H          10.1645    1.9189    0.0000 H       1  UNL1        0.0492
     30 H           9.5713    1.3866    0.0000 H       1  UNL1        0.0492
     31 H          11.0780   -0.4560    0.0000 H       1  UNL1        0.1029
     32 H           3.3335   -0.4309    0.0000 H       1  UNL1        0.0341
     33 H           4.1306   -0.4309    0.0000 H       1  UNL1        0.0341
     34 H          11.1842    0.8858    0.0000 H       1  UNL1        0.0280
     35 H          11.7774    1.4181    0.0000 H       1  UNL1        0.0280
     36 H           7.4422   -2.4560    0.0000 H       1  UNL1        0.0458
     37 H           8.0622   -3.0760    0.0000 H       1  UNL1        0.0458
     38 H           8.6822   -2.4560    0.0000 H       1  UNL1        0.0458
     39 H          12.0636    2.2634    0.0000 H       1  UNL1        0.0230
     40 H          11.6669    3.0453    0.0000 H       1  UNL1        0.0230
     41 H          10.8849    2.6486    0.0000 H       1  UNL1        0.0230
     42 H           1.6900    0.5809    0.0000 H       1  UNL1        0.0306
     43 H           1.4631   -0.2660    0.0000 H       1  UNL1        0.0306
     44 H           2.3100   -0.4929    0.0000 H       1  UNL1        0.0306
@<TRIPOS>BOND
     1     1    12    2
     2     2    15    2
     3     3    21    2
     4     4     8    1
     5     4    12   ar
     6     4    15   ar
     7     5     9   ar
     8     5    14    1
     9     5    16   ar
    10     6    11   ar
    11     6    15   ar
    12     6    19    1
    13     7    11   ar
    14     7    16   ar
    15     8    10    1
    16     8    23    1
    17     8    24    1
    18     9    11   ar
    19     9    12   ar
    20    10    13    1
    21    10    25    1
    22    10    26    1
    23    13    17    1
    24    13    27    1
    25    13    28    1
    26    14    18    1
    27    14    29    1
    28    14    30    1
    29    16    31    1
    30    17    21    1
    31    17    32    1
    32    17    33    1
    33    18    20    1
    34    18    34    1
    35    18    35    1
    36    19    36    1
    37    19    37    1
    38    19    38    1
    39    20    39    1
    40    20    40    1
    41    20    41    1
    42    21    22    1
    43    22    42    1
    44    22    43    1
    45    22    44    1
