@<TRIPOS>MOLECULE
IMPHY011145
 46 49 0 0 0
SMALL
GASTEIGER

@<TRIPOS>ATOM
      1 O           8.3432    2.0809    0.0000 O.3     1  UNL1       -0.4854
      2 O          10.9268    1.2762    0.0000 O.3     1  UNL1       -0.3855
      3 O           3.8473    1.8332    0.0000 O.3     1  UNL1       -0.5060
      4 O           2.0038   -1.2762    0.0000 O.3     1  UNL1       -0.4950
      5 C           8.9268    1.2762    0.0000 C.3     1  UNL1        0.1322
      6 C           8.3432    0.4714    0.0000 C.3     1  UNL1        0.0160
      7 C           7.3969    0.7762    0.0000 C.ar    1  UNL1        0.0016
      8 C           9.9268    1.2762    0.0000 C.3     1  UNL1        0.0974
      9 C           6.5309    0.2762    0.0000 C.ar    1  UNL1       -0.0325
     10 C           7.3969    1.7762    0.0000 C.ar    1  UNL1        0.1246
     11 C           6.5470   -0.7653    0.0000 C.3     1  UNL1       -0.0227
     12 C           5.6649    0.7762    0.0000 C.ar    1  UNL1       -0.0105
     13 C           5.6489   -1.2931    0.0000 C.3     1  UNL1       -0.0229
     14 C           4.7549    0.2693    0.0000 C.ar    1  UNL1        0.0272
     15 C           4.7469   -0.7723    0.0000 C.ar    1  UNL1       -0.0324
     16 C           6.5309    2.2762    0.0000 C.ar    1  UNL1       -0.0191
     17 C           9.9268    2.2762    0.0000 C.3     1  UNL1       -0.0328
     18 C           9.9268    0.2762    0.0000 C.3     1  UNL1       -0.0328
     19 C           5.6649    1.7762    0.0000 C.ar    1  UNL1       -0.0502
     20 C           3.8280    0.8334    0.0000 C.ar    1  UNL1        0.1283
     21 C           3.8114   -1.3220    0.0000 C.ar    1  UNL1       -0.0160
     22 C           2.8718   -0.7795    0.0000 C.ar    1  UNL1        0.1239
     23 C           2.8802    0.3055    0.0000 C.ar    1  UNL1        0.0221
     24 C           2.0000   -2.2762    0.0000 C.3     1  UNL1        0.0788
     25 H           9.2085    1.8285    0.0000 H       1  UNL1        0.0765
     26 H           8.0921   -0.0955    0.0000 H       1  UNL1        0.0351
     27 H           8.8805    0.1622    0.0000 H       1  UNL1        0.0351
     28 H           6.7650   -1.3457    0.0000 H       1  UNL1        0.0317
     29 H           7.1561   -0.6498    0.0000 H       1  UNL1        0.0317
     30 H           5.2516   -1.7691    0.0000 H       1  UNL1        0.0317
     31 H           6.0499   -1.7660    0.0000 H       1  UNL1        0.0317
     32 H           6.5309    2.8962    0.0000 H       1  UNL1        0.0654
     33 H          10.5468    2.2762    0.0000 H       1  UNL1        0.0258
     34 H           9.3068    0.2762    0.0000 H       1  UNL1        0.0258
     35 H           9.9268   -0.3438    0.0000 H       1  UNL1        0.0258
     36 H          10.5468    0.2762    0.0000 H       1  UNL1        0.0258
     37 H           9.9268    2.8962    0.0000 H       1  UNL1        0.0258
     38 H           9.3068    2.2762    0.0000 H       1  UNL1        0.0258
     39 H           5.1280    2.0862    0.0000 H       1  UNL1        0.0625
     40 H          11.2368    1.8131    0.0000 H       1  UNL1        0.2103
     41 H           3.8138   -1.9420    0.0000 H       1  UNL1        0.0657
     42 H           2.3468    0.6216    0.0000 H       1  UNL1        0.0691
     43 H           3.3165    2.1535    0.0000 H       1  UNL1        0.2922
     44 H           1.3800   -2.2738    0.0000 H       1  UNL1        0.0660
     45 H           1.9976   -2.8962    0.0000 H       1  UNL1        0.0660
     46 H           2.6200   -2.2786    0.0000 H       1  UNL1        0.0660
@<TRIPOS>BOND
     1     1     5    1
     2     1    10    1
     3     2     8    1
     4     2    40    1
     5     3    20    1
     6     3    43    1
     7     4    22    1
     8     4    24    1
     9     5     6    1
    10     5     8    1
    11     5    25    1
    12     6     7    1
    13     6    26    1
    14     6    27    1
    15     7     9   ar
    16     7    10   ar
    17     8    17    1
    18     8    18    1
    19     9    11    1
    20     9    12   ar
    21    10    16   ar
    22    11    13    1
    23    11    28    1
    24    11    29    1
    25    12    14    1
    26    12    19   ar
    27    13    15    1
    28    13    30    1
    29    13    31    1
    30    14    15   ar
    31    14    20   ar
    32    15    21   ar
    33    16    19   ar
    34    16    32    1
    35    17    33    1
    36    17    37    1
    37    17    38    1
    38    18    34    1
    39    18    35    1
    40    18    36    1
    41    19    39    1
    42    20    23   ar
    43    21    22   ar
    44    21    41    1
    45    22    23   ar
    46    23    42    1
    47    24    44    1
    48    24    45    1
    49    24    46    1
