@<TRIPOS>MOLECULE
IMPHY014092
 24 23 0 0 0
SMALL
GASTEIGER

@<TRIPOS>ATOM
      1 C           3.7320   -0.0600    0.0000 C.2     1  UNL1       -0.0510
      2 C           4.5981    0.4400    0.0000 C.2     1  UNL1       -0.0588
      3 C           5.4641   -0.0600    0.0000 C.2     1  UNL1       -0.0613
      4 C           7.1962   -0.0600    0.0000 C.2     1  UNL1       -0.0575
      5 C           6.3301    0.4400    0.0000 C.2     1  UNL1       -0.0594
      6 C           3.7320   -1.0600    0.0000 C.3     1  UNL1       -0.0397
      7 C           8.0622    0.4400    0.0000 C.3     1  UNL1       -0.0403
      8 C           2.8660    0.4400    0.0000 C.2     1  UNL1       -0.0659
      9 C           7.1962   -1.0600    0.0000 C.2     1  UNL1       -0.0958
     10 C           2.0000   -0.0600    0.0000 C.2     1  UNL1       -0.0984
     11 H           4.5981    1.0600    0.0000 H       1  UNL1        0.0620
     12 H           5.4641   -0.6800    0.0000 H       1  UNL1        0.0618
     13 H           6.3301    1.0600    0.0000 H       1  UNL1        0.0620
     14 H           3.1120   -1.0600    0.0000 H       1  UNL1        0.0278
     15 H           3.7320   -1.6800    0.0000 H       1  UNL1        0.0278
     16 H           4.3520   -1.0600    0.0000 H       1  UNL1        0.0278
     17 H           8.3722   -0.0969    0.0000 H       1  UNL1        0.0277
     18 H           8.5991    0.7500    0.0000 H       1  UNL1        0.0277
     19 H           7.7522    0.9769    0.0000 H       1  UNL1        0.0277
     20 H           2.8660    1.0600    0.0000 H       1  UNL1        0.0614
     21 H           6.6592   -1.3700    0.0000 H       1  UNL1        0.0537
     22 H           7.7331   -1.3700    0.0000 H       1  UNL1        0.0537
     23 H           1.4631    0.2500    0.0000 H       1  UNL1        0.0535
     24 H           2.0000   -0.6800    0.0000 H       1  UNL1        0.0535
@<TRIPOS>BOND
     1     1     2    2
     2     1     6    1
     3     1     8    1
     4     2     3    1
     5     2    11    1
     6     3     5    2
     7     3    12    1
     8     4     5    1
     9     4     7    1
    10     4     9    2
    11     5    13    1
    12     6    14    1
    13     6    15    1
    14     6    16    1
    15     7    17    1
    16     7    18    1
    17     7    19    1
    18     8    10    2
    19     8    20    1
    20     9    21    1
    21     9    22    1
    22    10    23    1
    23    10    24    1
