@<TRIPOS>MOLECULE
IMPHY013921
 56 60 0 0 0
SMALL
GASTEIGER

@<TRIPOS>ATOM
      1 O           6.4841    0.4076    0.0000 O.3     1  UNL1       -0.4754
      2 O           4.6258   -0.6845    0.0000 O.3     1  UNL1       -0.4732
      3 O           6.3821    2.4698    0.0000 O.2     1  UNL1       -0.4508
      4 O           8.2327   -0.6572    0.0000 O.3     1  UNL1       -0.3912
      5 O           2.8641    0.4246    0.0000 O.3     1  UNL1       -0.4913
      6 O           7.3090   -4.2203    0.0000 O.3     1  UNL1       -0.4913
      7 O           3.8449   -4.2336    0.0000 O.3     1  UNL1       -0.4913
      8 O           3.7840    3.9698    0.0000 O.2     1  UNL1       -0.2864
      9 O           5.5808   -5.2269    0.0000 O.3     1  UNL1       -0.5009
     10 C           5.5654   -1.2270    0.0000 C.3     1  UNL1        0.1645
     11 C           6.5008   -0.6772    0.0000 C.3     1  UNL1        0.1641
     12 C           5.5322    0.9282    0.0000 C.ar    1  UNL1        0.2093
     13 C           5.5692   -2.2270    0.0000 C.ar    1  UNL1        0.0034
     14 C           4.6341    0.4005    0.0000 C.ar    1  UNL1        0.2083
     15 C           7.3726   -1.1672    0.0000 C.3     1  UNL1        0.0850
     16 C           5.5161    1.9698    0.0000 C.ar    1  UNL1        0.1846
     17 C           4.6501    2.4698    0.0000 C.ar    1  UNL1        0.0719
     18 C           3.7320    0.9213    0.0000 C.ar    1  UNL1        0.1661
     19 C           4.7052   -2.7303    0.0000 C.ar    1  UNL1       -0.0093
     20 C           6.4372   -2.7236    0.0000 C.ar    1  UNL1       -0.0093
     21 C           3.7401    1.9629    0.0000 C.ar    1  UNL1       -0.0017
     22 C           4.6501    3.4698    0.0000 C.ar    1  UNL1        0.2004
     23 C           5.5161    3.9698    0.0000 C.ar    1  UNL1        0.0646
     24 C           6.3821    3.4698    0.0000 C.ar    1  UNL1        0.1394
     25 C           6.4410   -3.7236    0.0000 C.ar    1  UNL1        0.1654
     26 C           4.7090   -3.7303    0.0000 C.ar    1  UNL1        0.1654
     27 C           5.5770   -4.2270    0.0000 C.ar    1  UNL1        0.2010
     28 C           5.5000    5.0113    0.0000 C.ar    1  UNL1       -0.0474
     29 C           7.2921    3.9766    0.0000 C.ar    1  UNL1       -0.0186
     30 C           6.3981    5.5390    0.0000 C.ar    1  UNL1       -0.0609
     31 C           7.3002    5.0182    0.0000 C.ar    1  UNL1       -0.0582
     32 C           2.0000    0.9280    0.0000 C.3     1  UNL1        0.0790
     33 C           8.1731   -3.7169    0.0000 C.3     1  UNL1        0.0790
     34 C           2.9770   -3.7370    0.0000 C.3     1  UNL1        0.0790
     35 H           6.1041   -1.5339    0.0000 H       1  UNL1        0.0823
     36 H           7.0335   -0.3600    0.0000 H       1  UNL1        0.0798
     37 H           6.9796   -1.6467    0.0000 H       1  UNL1        0.0595
     38 H           7.7766   -1.6375    0.0000 H       1  UNL1        0.0595
     39 H           4.1670   -2.4224    0.0000 H       1  UNL1        0.0659
     40 H           6.9729   -2.4116    0.0000 H       1  UNL1        0.0659
     41 H           3.2068    2.2791    0.0000 H       1  UNL1        0.0664
     42 H           8.7732   -0.9610    0.0000 H       1  UNL1        0.2096
     43 H           4.9596    5.3150    0.0000 H       1  UNL1        0.0626
     44 H           7.8254    3.6604    0.0000 H       1  UNL1        0.0654
     45 H           6.3957    6.1590    0.0000 H       1  UNL1        0.0618
     46 H           7.8383    5.3261    0.0000 H       1  UNL1        0.0619
     47 H           2.3121    1.4637    0.0000 H       1  UNL1        0.0660
     48 H           1.4643    1.2401    0.0000 H       1  UNL1        0.0660
     49 H           1.6879    0.3922    0.0000 H       1  UNL1        0.0660
     50 H           5.0451   -5.5390    0.0000 H       1  UNL1        0.2924
     51 H           8.4852   -4.2527    0.0000 H       1  UNL1        0.0660
     52 H           8.7088   -3.4049    0.0000 H       1  UNL1        0.0660
     53 H           7.8610   -3.1812    0.0000 H       1  UNL1        0.0660
     54 H           3.2849   -3.1988    0.0000 H       1  UNL1        0.0660
     55 H           2.4388   -3.4290    0.0000 H       1  UNL1        0.0660
     56 H           2.6690   -4.2751    0.0000 H       1  UNL1        0.0660
@<TRIPOS>BOND
     1     1    11    1
     2     1    12    1
     3     2    10    1
     4     2    14    1
     5     3    16   ar
     6     3    24   ar
     7     4    15    1
     8     4    42    1
     9     5    18    1
    10     5    32    1
    11     6    25    1
    12     6    33    1
    13     7    26    1
    14     7    34    1
    15     8    22    2
    16     9    27    1
    17     9    50    1
    18    10    11    1
    19    10    13    1
    20    10    35    1
    21    11    15    1
    22    11    36    1
    23    12    14   ar
    24    12    16   ar
    25    13    19   ar
    26    13    20   ar
    27    14    18   ar
    28    15    37    1
    29    15    38    1
    30    16    17   ar
    31    17    21   ar
    32    17    22   ar
    33    18    21   ar
    34    19    26   ar
    35    19    39    1
    36    20    25   ar
    37    20    40    1
    38    21    41    1
    39    22    23   ar
    40    23    24   ar
    41    23    28   ar
    42    24    29   ar
    43    25    27   ar
    44    26    27   ar
    45    28    30   ar
    46    28    43    1
    47    29    31   ar
    48    29    44    1
    49    30    31   ar
    50    30    45    1
    51    31    46    1
    52    32    47    1
    53    32    48    1
    54    32    49    1
    55    33    51    1
    56    33    52    1
    57    33    53    1
    58    34    54    1
    59    34    55    1
    60    34    56    1
