@<TRIPOS>MOLECULE
IMPHY012588
 24 24 0 0 0
SMALL
GASTEIGER

@<TRIPOS>ATOM
      1 O           2.8660    0.5000    0.0000 O.3     1  UNL1       -0.4257
      2 O           4.5981    0.5000    0.0000 O.2     1  UNL1       -0.2501
      3 C           3.7320    2.0000    0.0000 C.3     1  UNL1        0.0512
      4 C           4.5981    2.5000    0.0000 C.3     1  UNL1       -0.0525
      5 C           2.8660    2.5000    0.0000 C.3     1  UNL1       -0.0525
      6 C           3.7320    1.0000    0.0000 C.2     1  UNL1        0.3149
      7 C           2.8660   -0.5000    0.0000 C.ar    1  UNL1        0.1316
      8 C           2.0000   -1.0000    0.0000 C.ar    1  UNL1       -0.0192
      9 C           3.7320   -1.0000    0.0000 C.ar    1  UNL1       -0.0192
     10 C           2.0000   -2.0000    0.0000 C.ar    1  UNL1       -0.0583
     11 C           3.7320   -2.0000    0.0000 C.ar    1  UNL1       -0.0583
     12 C           2.8660   -2.5000    0.0000 C.ar    1  UNL1       -0.0615
     13 H           3.7320    2.6200    0.0000 H       1  UNL1        0.0408
     14 H           4.9081    1.9631    0.0000 H       1  UNL1        0.0237
     15 H           5.1350    2.8100    0.0000 H       1  UNL1        0.0237
     16 H           4.2881    3.0369    0.0000 H       1  UNL1        0.0237
     17 H           3.1760    3.0369    0.0000 H       1  UNL1        0.0237
     18 H           2.3291    2.8100    0.0000 H       1  UNL1        0.0237
     19 H           2.5560    1.9631    0.0000 H       1  UNL1        0.0237
     20 H           1.4631   -0.6900    0.0000 H       1  UNL1        0.0654
     21 H           4.2690   -0.6900    0.0000 H       1  UNL1        0.0654
     22 H           1.4631   -2.3100    0.0000 H       1  UNL1        0.0619
     23 H           4.2690   -2.3100    0.0000 H       1  UNL1        0.0619
     24 H           2.8660   -3.1200    0.0000 H       1  UNL1        0.0618
@<TRIPOS>BOND
     1     1     6    1
     2     1     7    1
     3     2     6    2
     4     3     4    1
     5     3     5    1
     6     3     6    1
     7     3    13    1
     8     4    14    1
     9     4    15    1
    10     4    16    1
    11     5    17    1
    12     5    18    1
    13     5    19    1
    14     7     8   ar
    15     7     9   ar
    16     8    10   ar
    17     8    20    1
    18     9    11   ar
    19     9    21    1
    20    10    12   ar
    21    10    22    1
    22    11    12   ar
    23    11    23    1
    24    12    24    1
