@<TRIPOS>MOLECULE
IMPHY009322
 41 42 0 0 0
SMALL
GASTEIGER

@<TRIPOS>ATOM
      1 O           5.0000    0.2990    0.0000 O.3     1  UNL1       -0.4569
      2 O           5.0000   -1.4330    0.0000 O.2     1  UNL1       -0.2508
      3 C           7.5388    0.7990    0.0000 C.3     1  UNL1       -0.0161
      4 C           7.5388   -0.2010    0.0000 C.3     1  UNL1       -0.0102
      5 C           8.4054    0.2990    0.0000 C.3     1  UNL1       -0.0393
      6 C           6.5878    1.1081    0.0000 C.3     1  UNL1       -0.0053
      7 C           7.5388    1.7990    0.0000 C.3     1  UNL1       -0.0404
      8 C           6.5878   -0.5100    0.0000 C.2     1  UNL1       -0.0330
      9 C           6.0000    0.2990    0.0000 C.3     1  UNL1        0.1247
     10 C           8.4049    2.2990    0.0000 C.3     1  UNL1       -0.0621
     11 C           6.6728    2.2990    0.0000 C.3     1  UNL1       -0.0621
     12 C           6.2788   -1.4610    0.0000 C.2     1  UNL1       -0.0957
     13 C           4.5000   -0.5670    0.0000 C.2     1  UNL1        0.3079
     14 C           3.5000   -0.5670    0.0000 C.3     1  UNL1        0.0473
     15 C           3.0000   -1.4330    0.0000 C.3     1  UNL1       -0.0367
     16 C           2.0000   -1.4330    0.0000 C.3     1  UNL1       -0.0622
     17 C           3.5000   -2.2990    0.0000 C.3     1  UNL1       -0.0622
     18 H           7.7910   -0.7674    0.0000 H       1  UNL1        0.0352
     19 H           8.8039   -0.1759    0.0000 H       1  UNL1        0.0277
     20 H           8.8039    0.7740    0.0000 H       1  UNL1        0.0277
     21 H           6.8400    1.6744    0.0000 H       1  UNL1        0.0310
     22 H           6.0508    1.4181    0.0000 H       1  UNL1        0.0310
     23 H           7.0019    1.4890    0.0000 H       1  UNL1        0.0301
     24 H           5.7185    0.8515    0.0000 H       1  UNL1        0.0782
     25 H           8.7149    1.7621    0.0000 H       1  UNL1        0.0233
     26 H           8.9418    2.6090    0.0000 H       1  UNL1        0.0233
     27 H           6.9828    2.8360    0.0000 H       1  UNL1        0.0233
     28 H           6.1359    2.6090    0.0000 H       1  UNL1        0.0233
     29 H           6.3628    1.7621    0.0000 H       1  UNL1        0.0233
     30 H           8.0949    2.8360    0.0000 H       1  UNL1        0.0233
     31 H           5.6723   -1.5899    0.0000 H       1  UNL1        0.0536
     32 H           6.6936   -1.9218    0.0000 H       1  UNL1        0.0536
     33 H           3.6077    0.0436    0.0000 H       1  UNL1        0.0380
     34 H           2.9174   -0.3549    0.0000 H       1  UNL1        0.0380
     35 H           3.6200   -1.4330    0.0000 H       1  UNL1        0.0301
     36 H           2.0000   -0.8130    0.0000 H       1  UNL1        0.0232
     37 H           1.3800   -1.4330    0.0000 H       1  UNL1        0.0232
     38 H           2.0000   -2.0530    0.0000 H       1  UNL1        0.0232
     39 H           2.9631   -2.6090    0.0000 H       1  UNL1        0.0232
     40 H           3.8100   -2.8360    0.0000 H       1  UNL1        0.0232
     41 H           4.0369   -1.9890    0.0000 H       1  UNL1        0.0232
@<TRIPOS>BOND
     1     1     9    1
     2     1    13    1
     3     2    13    2
     4     3     4    1
     5     3     5    1
     6     3     6    1
     7     3     7    1
     8     4     5    1
     9     4     8    1
    10     4    18    1
    11     5    19    1
    12     5    20    1
    13     6     9    1
    14     6    21    1
    15     6    22    1
    16     7    10    1
    17     7    11    1
    18     7    23    1
    19     8     9    1
    20     8    12    2
    21     9    24    1
    22    10    25    1
    23    10    26    1
    24    10    30    1
    25    11    27    1
    26    11    28    1
    27    11    29    1
    28    12    31    1
    29    12    32    1
    30    13    14    1
    31    14    15    1
    32    14    33    1
    33    14    34    1
    34    15    16    1
    35    15    17    1
    36    15    35    1
    37    16    36    1
    38    16    37    1
    39    16    38    1
    40    17    39    1
    41    17    40    1
    42    17    41    1
