@<TRIPOS>MOLECULE
IMPHY017518
 15 15 0 0 0
SMALL
GASTEIGER

@<TRIPOS>ATOM
      1 O           2.0000    0.8100    0.0000 O.3     1  UNL1       -0.4888
      2 O           2.0000   -1.1900    0.0000 O.2     1  UNL1       -0.2638
      3 N           3.7320   -1.1900    0.0000 N.ar    1  UNL1       -0.3104
      4 N           4.5981    0.3100    0.0000 N.ar    1  UNL1       -0.2418
      5 C           2.8660    0.3100    0.0000 C.ar    1  UNL1        0.2026
      6 C           2.8660   -0.6900    0.0000 C.ar    1  UNL1        0.2932
      7 C           3.7320    0.8100    0.0000 C.ar    1  UNL1        0.0763
      8 C           4.5981   -0.6900    0.0000 C.ar    1  UNL1        0.0961
      9 C           2.0000    1.8100    0.0000 C.3     1  UNL1        0.0791
     10 H           3.7320   -1.8100    0.0000 H       1  UNL1        0.1699
     11 H           3.7320    1.4300    0.0000 H       1  UNL1        0.0869
     12 H           5.1350   -1.0000    0.0000 H       1  UNL1        0.1027
     13 H           2.6200    1.8100    0.0000 H       1  UNL1        0.0660
     14 H           2.0000    2.4300    0.0000 H       1  UNL1        0.0660
     15 H           1.3800    1.8100    0.0000 H       1  UNL1        0.0660
@<TRIPOS>BOND
     1     1     5    1
     2     1     9    1
     3     2     6    2
     4     3     6   ar
     5     3     8   ar
     6     3    10    1
     7     4     7   ar
     8     4     8   ar
     9     5     6   ar
    10     5     7   ar
    11     7    11    1
    12     8    12    1
    13     9    13    1
    14     9    14    1
    15     9    15    1
