@<TRIPOS>MOLECULE
IMPHY000881
 48 50 0 0 0
SMALL
GASTEIGER

@<TRIPOS>ATOM
      1 O           8.0901   -1.8017    0.0000 O.3     1  UNL1       -0.4865
      2 O           6.3301    1.2329    0.0000 O.3     1  UNL1       -0.4940
      3 O           4.5981   -1.7671    0.0000 O.3     1  UNL1       -0.5062
      4 O          10.7321   -1.2396    0.0000 O.3     1  UNL1       -0.5060
      5 O          12.4525    1.7671    0.0000 O.3     1  UNL1       -0.5066
      6 C           7.1962   -0.2671    0.0000 C.ar    1  UNL1        0.0592
      7 C           5.4641   -0.2671    0.0000 C.ar    1  UNL1        0.0401
      8 C           7.1962   -1.2671    0.0000 C.ar    1  UNL1        0.1351
      9 C           6.3301    0.2329    0.0000 C.ar    1  UNL1        0.1376
     10 C           8.9962   -0.2463    0.0000 C.2     1  UNL1        0.0010
     11 C           8.0901    0.2676    0.0000 C.2     1  UNL1       -0.0405
     12 C           8.9962   -1.2879    0.0000 C.3     1  UNL1        0.1153
     13 C           4.5981    0.2329    0.0000 C.3     1  UNL1       -0.0023
     14 C           5.4641   -1.2671    0.0000 C.ar    1  UNL1        0.1273
     15 C           6.3301   -1.7671    0.0000 C.ar    1  UNL1        0.0227
     16 C           9.8602    0.2571    0.0000 C.ar    1  UNL1        0.0231
     17 C           3.7320   -0.2671    0.0000 C.2     1  UNL1       -0.0807
     18 C          10.7282   -0.2396    0.0000 C.ar    1  UNL1        0.1278
     19 C           9.8564    1.2571    0.0000 C.ar    1  UNL1       -0.0473
     20 C           2.8660    0.2329    0.0000 C.2     1  UNL1       -0.0793
     21 C          11.5923    0.2638    0.0000 C.ar    1  UNL1        0.0219
     22 C          10.7205    1.7604    0.0000 C.ar    1  UNL1       -0.0194
     23 C          11.5884    1.2637    0.0000 C.ar    1  UNL1        0.1204
     24 C           5.4641    1.7329    0.0000 C.3     1  UNL1        0.0788
     25 C           2.0000   -0.2671    0.0000 C.3     1  UNL1       -0.0440
     26 C           2.8660    1.2329    0.0000 C.3     1  UNL1       -0.0440
     27 H           8.0829    0.8875    0.0000 H       1  UNL1        0.0630
     28 H           9.2052   -1.8716    0.0000 H       1  UNL1        0.0748
     29 H           9.6070   -1.1818    0.0000 H       1  UNL1        0.0748
     30 H           4.9966    0.7079    0.0000 H       1  UNL1        0.0358
     31 H           4.1996    0.7079    0.0000 H       1  UNL1        0.0358
     32 H           6.3301   -2.3871    0.0000 H       1  UNL1        0.0691
     33 H           3.7320   -0.8871    0.0000 H       1  UNL1        0.0575
     34 H           9.3183    1.5650    0.0000 H       1  UNL1        0.0626
     35 H          12.1304   -0.0442    0.0000 H       1  UNL1        0.0691
     36 H          10.7181    2.3804    0.0000 H       1  UNL1        0.0654
     37 H           4.5981   -2.3871    0.0000 H       1  UNL1        0.2921
     38 H           5.7741    2.2699    0.0000 H       1  UNL1        0.0660
     39 H           4.9272    2.0429    0.0000 H       1  UNL1        0.0660
     40 H           5.1541    1.1960    0.0000 H       1  UNL1        0.0660
     41 H           1.6900    0.2699    0.0000 H       1  UNL1        0.0274
     42 H           1.4631   -0.5771    0.0000 H       1  UNL1        0.0274
     43 H           3.4860    1.2329    0.0000 H       1  UNL1        0.0274
     44 H           2.8660    1.8529    0.0000 H       1  UNL1        0.0274
     45 H           2.2460    1.2329    0.0000 H       1  UNL1        0.0274
     46 H           2.3100   -0.8040    0.0000 H       1  UNL1        0.0274
     47 H          11.2702   -1.5475    0.0000 H       1  UNL1        0.2922
     48 H          12.4501    2.3871    0.0000 H       1  UNL1        0.2921
@<TRIPOS>BOND
     1     1     8    1
     2     1    12    1
     3     2     9    1
     4     2    24    1
     5     3    14    1
     6     3    37    1
     7     4    18    1
     8     4    47    1
     9     5    23    1
    10     5    48    1
    11     6     8   ar
    12     6     9   ar
    13     6    11    1
    14     7     9   ar
    15     7    13    1
    16     7    14   ar
    17     8    15   ar
    18    10    11    2
    19    10    12    1
    20    10    16    1
    21    11    27    1
    22    12    28    1
    23    12    29    1
    24    13    17    1
    25    13    30    1
    26    13    31    1
    27    14    15   ar
    28    15    32    1
    29    16    18   ar
    30    16    19   ar
    31    17    20    2
    32    17    33    1
    33    18    21   ar
    34    19    22   ar
    35    19    34    1
    36    20    25    1
    37    20    26    1
    38    21    23   ar
    39    21    35    1
    40    22    23   ar
    41    22    36    1
    42    24    38    1
    43    24    39    1
    44    24    40    1
    45    25    41    1
    46    25    42    1
    47    25    46    1
    48    26    43    1
    49    26    44    1
    50    26    45    1
