@<TRIPOS>MOLECULE
IMPHY001509
 78 81 0 0 0
SMALL
GASTEIGER

@<TRIPOS>ATOM
      1 O           6.1847   -4.1911    0.0000 O.2     1  UNL1       -0.2971
      2 O           2.5357   -3.1742    0.0000 O.3     1  UNL1       -0.3918
      3 C           7.9288   -0.1219    0.0000 C.3     1  UNL1       -0.0259
      4 C           7.9288   -1.1219    0.0000 C.3     1  UNL1       -0.0319
      5 C           7.0628   -1.6219    0.0000 C.3     1  UNL1       -0.0277
      6 C           6.1968   -1.1219    0.0000 C.3     1  UNL1       -0.0315
      7 C           5.2868   -1.6287    0.0000 C.3     1  UNL1       -0.0193
      8 C           8.8750    0.1828    0.0000 C.3     1  UNL1       -0.0328
      9 C           7.0628    0.3781    0.0000 C.3     1  UNL1       -0.0468
     10 C           6.1968   -0.1219    0.0000 C.3     1  UNL1       -0.0489
     11 C           8.8750   -1.4266    0.0000 C.3     1  UNL1       -0.0492
     12 C           9.4586   -0.6219    0.0000 C.3     1  UNL1       -0.0492
     13 C           5.2787   -2.6703    0.0000 C.3     1  UNL1        0.0255
     14 C           7.0789   -2.6634    0.0000 C.3     1  UNL1        0.0095
     15 C           4.3599   -1.0647    0.0000 C.3     1  UNL1       -0.0444
     16 C           7.9288    0.8781    0.0000 C.3     1  UNL1       -0.0590
     17 C           9.1857    1.1334    0.0000 C.3     1  UNL1       -0.0405
     18 C           6.1808   -3.1912    0.0000 C.2     1  UNL1        0.1373
     19 C           4.3433   -3.2201    0.0000 C.3     1  UNL1       -0.0168
     20 C           5.2945   -0.6288    0.0000 C.3     1  UNL1       -0.0587
     21 C           3.4120   -1.5926    0.0000 C.3     1  UNL1       -0.0263
     22 C           3.4037   -2.6776    0.0000 C.3     1  UNL1        0.0559
     23 C          10.1642    1.3396    0.0000 C.3     1  UNL1       -0.0499
     24 C           8.5179    1.8777    0.0000 C.3     1  UNL1       -0.0621
     25 C          10.4749    2.2901    0.0000 C.3     1  UNL1       -0.0500
     26 C          11.4534    2.4963    0.0000 C.3     1  UNL1       -0.0415
     27 C          11.7640    3.4468    0.0000 C.3     1  UNL1       -0.0441
     28 C          12.1212    1.7520    0.0000 C.3     1  UNL1       -0.0622
     29 C          12.7425    3.6531    0.0000 C.3     1  UNL1       -0.0624
     30 C          11.0962    4.1911    0.0000 C.3     1  UNL1       -0.0624
     31 H           8.0188   -1.9671    0.0000 H       1  UNL1        0.0309
     32 H           7.8022   -2.0412    0.0000 H       1  UNL1        0.0310
     33 H           6.9329   -0.6969    0.0000 H       1  UNL1        0.0309
     34 H           9.7148    0.3147    0.0000 H       1  UNL1        0.0309
     35 H           7.4613    0.8531    0.0000 H       1  UNL1        0.0271
     36 H           6.6643    0.8531    0.0000 H       1  UNL1        0.0271
     37 H           5.9847    0.4607    0.0000 H       1  UNL1        0.0268
     38 H           5.5862   -0.2296    0.0000 H       1  UNL1        0.0268
     39 H           8.6240   -1.9935    0.0000 H       1  UNL1        0.0268
     40 H           9.4124   -1.7358    0.0000 H       1  UNL1        0.0268
     41 H           9.9195   -1.0366    0.0000 H       1  UNL1        0.0268
     42 H           9.9195   -0.2072    0.0000 H       1  UNL1        0.0268
     43 H           5.2820   -3.5203    0.0000 H       1  UNL1        0.0384
     44 H           7.2969   -3.2438    0.0000 H       1  UNL1        0.0345
     45 H           7.6880   -2.5479    0.0000 H       1  UNL1        0.0345
     46 H           4.7681   -0.5980    0.0000 H       1  UNL1        0.0272
     47 H           3.9700   -0.5826    0.0000 H       1  UNL1        0.0272
     48 H           8.5488    0.8781    0.0000 H       1  UNL1        0.0235
     49 H           7.9288    1.4981    0.0000 H       1  UNL1        0.0235
     50 H           7.3088    0.8781    0.0000 H       1  UNL1        0.0235
     51 H           9.3783    1.7227    0.0000 H       1  UNL1        0.0301
     52 H           3.9460   -3.6960    0.0000 H       1  UNL1        0.0297
     53 H           4.7443   -3.6930    0.0000 H       1  UNL1        0.0297
     54 H           5.9145   -0.6335    0.0000 H       1  UNL1        0.0235
     55 H           5.2993   -0.0088    0.0000 H       1  UNL1        0.0235
     56 H           4.6745   -0.6240    0.0000 H       1  UNL1        0.0235
     57 H           3.2075   -1.0073    0.0000 H       1  UNL1        0.0290
     58 H           2.8004   -1.6940    0.0000 H       1  UNL1        0.0290
     59 H           2.8686   -2.3645    0.0000 H       1  UNL1        0.0593
     60 H          10.1848    0.7199    0.0000 H       1  UNL1        0.0268
     61 H          10.7780    1.2522    0.0000 H       1  UNL1        0.0268
     62 H           8.9793    2.2917    0.0000 H       1  UNL1        0.0233
     63 H           8.1038    2.3391    0.0000 H       1  UNL1        0.0233
     64 H           8.0564    1.4636    0.0000 H       1  UNL1        0.0233
     65 H          10.4543    2.9098    0.0000 H       1  UNL1        0.0268
     66 H           9.8611    2.3774    0.0000 H       1  UNL1        0.0268
     67 H           2.0000   -2.8622    0.0000 H       1  UNL1        0.2098
     68 H          12.0601    2.6242    0.0000 H       1  UNL1        0.0301
     69 H          11.9567    4.0362    0.0000 H       1  UNL1        0.0298
     70 H          11.6598    1.3380    0.0000 H       1  UNL1        0.0232
     71 H          12.5353    1.2906    0.0000 H       1  UNL1        0.0232
     72 H          12.5827    2.1661    0.0000 H       1  UNL1        0.0232
     73 H          12.8704    3.0464    0.0000 H       1  UNL1        0.0232
     74 H          13.3492    3.7809    0.0000 H       1  UNL1        0.0232
     75 H          11.5577    4.6052    0.0000 H       1  UNL1        0.0232
     76 H          10.6821    4.6526    0.0000 H       1  UNL1        0.0232
     77 H          12.6147    4.2597    0.0000 H       1  UNL1        0.0232
     78 H          10.6347    3.7771    0.0000 H       1  UNL1        0.0232
@<TRIPOS>BOND
     1     1    18    2
     2    22     2    1
     3     2    67    1
     4     3     4    1
     5     3     8    1
     6     3     9    1
     7     3    16    1
     8     4     5    1
     9     4    11    1
    10     4    31    1
    11     5     6    1
    12     5    14    1
    13     5    32    1
    14     6     7    1
    15     6    10    1
    16     6    33    1
    17     7    13    1
    18     7    15    1
    19     7    20    1
    20     8    12    1
    21     8    17    1
    22     8    34    1
    23     9    10    1
    24     9    35    1
    25     9    36    1
    26    10    37    1
    27    10    38    1
    28    11    12    1
    29    11    39    1
    30    11    40    1
    31    12    41    1
    32    12    42    1
    33    13    18    1
    34    13    19    1
    35    13    43    1
    36    14    18    1
    37    14    44    1
    38    14    45    1
    39    15    21    1
    40    15    46    1
    41    15    47    1
    42    16    48    1
    43    16    49    1
    44    16    50    1
    45    17    23    1
    46    17    24    1
    47    17    51    1
    48    19    22    1
    49    19    52    1
    50    19    53    1
    51    20    54    1
    52    20    55    1
    53    20    56    1
    54    21    22    1
    55    21    57    1
    56    21    58    1
    57    22    59    1
    58    23    25    1
    59    23    60    1
    60    23    61    1
    61    24    62    1
    62    24    63    1
    63    24    64    1
    64    25    26    1
    65    25    65    1
    66    25    66    1
    67    26    27    1
    68    26    28    1
    69    26    68    1
    70    27    29    1
    71    27    30    1
    72    27    69    1
    73    28    70    1
    74    28    71    1
    75    28    72    1
    76    29    73    1
    77    29    74    1
    78    29    77    1
    79    30    75    1
    80    30    76    1
    81    30    78    1
