@<TRIPOS>MOLECULE
IMPHY017935
 10 9 0 0 0
SMALL
GASTEIGER

@<TRIPOS>ATOM
      1 O           5.4641    0.7500    0.0000 O.3     1  UNL1       -0.4523
      2 O           6.3301   -0.7500    0.0000 O.2     1  UNL1       -0.2501
      3 C           4.5981    0.2500    0.0000 C.3     1  UNL1        0.1689
      4 C           3.7321    0.7500    0.0000 C.3     1  UNL1        0.0436
      5 C           2.8660    0.2500    0.0000 C.3     1  UNL1        0.0037
      6 C           4.5981   -0.7500    0.0000 C.3     1  UNL1        0.0473
      7 C           2.0000    0.7500    0.0000 C.3     1  UNL1        0.0001
      8 C           6.3301    0.2500    0.0000 C.2     1  UNL1        0.3169
      9 C           7.1962    0.7500    0.0000 C.3     1  UNL1        0.1096
     10 C           8.0622    0.2500    0.0000 C.3     1  UNL1        0.0122
@<TRIPOS>BOND
     1     1     3    1
     2     1     8    1
     3     2     8    2
     4     3     4    1
     5     3     6    1
     6     4     5    1
     7     5     7    1
     8     8     9    1
     9     9    10    1
