@<TRIPOS>MOLECULE
IMPHY017474
 26 26 0 0 0
SMALL
GASTEIGER

@<TRIPOS>ATOM
      1 O           5.0916   -0.1542    0.0000 O.3     1  UNL1       -0.3846
      2 C           4.1906    0.2797    0.0000 C.3     1  UNL1        0.0840
      3 C           3.7568    1.1806    0.0000 C.3     1  UNL1       -0.0204
      4 C           2.7818    1.4031    0.0000 C.3     1  UNL1       -0.0502
      5 C           2.0000    0.7797    0.0000 C.3     1  UNL1       -0.0527
      6 C           2.0000   -0.2203    0.0000 C.3     1  UNL1       -0.0493
      7 C           3.7568   -0.6213    0.0000 C.2     1  UNL1       -0.0458
      8 C           2.7818   -0.8438    0.0000 C.3     1  UNL1       -0.0293
      9 C           5.0916    0.7135    0.0000 C.3     1  UNL1       -0.0322
     10 C           4.3802   -1.4031    0.0000 C.2     1  UNL1       -0.0968
     11 H           4.3612    1.3186    0.0000 H       1  UNL1        0.0296
     12 H           3.7568    1.8006    0.0000 H       1  UNL1        0.0296
     13 H           3.0508    1.9618    0.0000 H       1  UNL1        0.0266
     14 H           2.2971    1.7897    0.0000 H       1  UNL1        0.0266
     15 H           1.7310    1.3383    0.0000 H       1  UNL1        0.0265
     16 H           1.3955    0.6417    0.0000 H       1  UNL1        0.0265
     17 H           1.3955   -0.0824    0.0000 H       1  UNL1        0.0268
     18 H           1.7310   -0.7789    0.0000 H       1  UNL1        0.0268
     19 H           2.2971   -1.2304    0.0000 H       1  UNL1        0.0311
     20 H           3.0508   -1.4024    0.0000 H       1  UNL1        0.0311
     21 H           5.3606    0.1549    0.0000 H       1  UNL1        0.0260
     22 H           5.6502    0.9825    0.0000 H       1  UNL1        0.0260
     23 H           4.8226    1.2721    0.0000 H       1  UNL1        0.0260
     24 H           5.6039    0.1950    0.0000 H       1  UNL1        0.2106
     25 H           4.1537   -1.9803    0.0000 H       1  UNL1        0.0535
     26 H           4.9933   -1.3107    0.0000 H       1  UNL1        0.0535
@<TRIPOS>BOND
     1     1     2    1
     2     1    24    1
     3     2     3    1
     4     2     7    1
     5     2     9    1
     6     3     4    1
     7     3    11    1
     8     3    12    1
     9     4     5    1
    10     4    13    1
    11     4    14    1
    12     5     6    1
    13     5    15    1
    14     5    16    1
    15     6     8    1
    16     6    17    1
    17     6    18    1
    18     7     8    1
    19     7    10    2
    20     8    19    1
    21     8    20    1
    22     9    21    1
    23     9    22    1
    24     9    23    1
    25    10    25    1
    26    10    26    1
