@<TRIPOS>MOLECULE
IMPHY016765
 31 32 0 0 0
SMALL
GASTEIGER

@<TRIPOS>ATOM
      1 N           2.8660    0.5000    0.0000 N.pl3   1  UNL1       -0.3333
      2 C           2.0000    1.0000    0.0000 C.3     1  UNL1        0.0119
      3 C           3.7320    1.0000    0.0000 C.3     1  UNL1        0.0119
      4 C           2.8660   -0.5000    0.0000 C.2     1  UNL1        0.0025
      5 C           2.0000    2.0000    0.0000 C.3     1  UNL1       -0.0372
      6 C           3.7320    2.0000    0.0000 C.3     1  UNL1       -0.0372
      7 C           2.8660    2.5000    0.0000 C.3     1  UNL1       -0.0502
      8 C           2.0000   -1.0000    0.0000 C.3     1  UNL1       -0.0149
      9 C           2.0000   -2.0000    0.0000 C.3     1  UNL1       -0.0476
     10 C           2.8660   -2.5000    0.0000 C.3     1  UNL1       -0.0492
     11 C           3.7320   -2.0000    0.0000 C.3     1  UNL1       -0.0330
     12 C           3.7320   -1.0000    0.0000 C.2     1  UNL1       -0.0671
     13 H           1.3894    1.1077    0.0000 H       1  UNL1        0.0463
     14 H           1.7880    0.4174    0.0000 H       1  UNL1        0.0463
     15 H           3.9441    0.4174    0.0000 H       1  UNL1        0.0463
     16 H           4.3426    1.1077    0.0000 H       1  UNL1        0.0463
     17 H           1.7880    2.5826    0.0000 H       1  UNL1        0.0280
     18 H           1.3894    1.8923    0.0000 H       1  UNL1        0.0280
     19 H           4.3426    1.8923    0.0000 H       1  UNL1        0.0280
     20 H           3.9441    2.5826    0.0000 H       1  UNL1        0.0280
     21 H           3.2646    2.9750    0.0000 H       1  UNL1        0.0266
     22 H           2.4675    2.9750    0.0000 H       1  UNL1        0.0266
     23 H           1.7880   -0.4174    0.0000 H       1  UNL1        0.0325
     24 H           1.3894   -1.1077    0.0000 H       1  UNL1        0.0325
     25 H           1.3894   -1.8923    0.0000 H       1  UNL1        0.0269
     26 H           1.7880   -2.5826    0.0000 H       1  UNL1        0.0269
     27 H           2.4675   -2.9750    0.0000 H       1  UNL1        0.0268
     28 H           3.2646   -2.9750    0.0000 H       1  UNL1        0.0268
     29 H           3.9441   -2.5826    0.0000 H       1  UNL1        0.0308
     30 H           4.3426   -1.8923    0.0000 H       1  UNL1        0.0308
     31 H           4.2690   -0.6900    0.0000 H       1  UNL1        0.0587
@<TRIPOS>BOND
     1     1     2    1
     2     1     3    1
     3     1     4    1
     4     2     5    1
     5     2    13    1
     6     2    14    1
     7     3     6    1
     8     3    15    1
     9     3    16    1
    10     4     8    1
    11     4    12    2
    12     5     7    1
    13     5    17    1
    14     5    18    1
    15     6     7    1
    16     6    19    1
    17     6    20    1
    18     7    21    1
    19     7    22    1
    20     8     9    1
    21     8    23    1
    22     8    24    1
    23     9    10    1
    24     9    25    1
    25     9    26    1
    26    10    11    1
    27    10    27    1
    28    10    28    1
    29    11    12    1
    30    11    29    1
    31    11    30    1
    32    12    31    1
