@<TRIPOS>MOLECULE
IMPHY001310
 89 92 0 0 0
SMALL
GASTEIGER

@<TRIPOS>ATOM
      1 O          10.4586   -1.2518    0.0000 O.3     1  UNL1       -0.3914
      2 O          10.1362    0.1928    0.0000 O.3     1  UNL1       -0.3806
      3 O           2.5519   -1.7126    0.0000 O.3     1  UNL1       -0.3892
      4 O           2.5357   -3.8042    0.0000 O.3     1  UNL1       -0.3884
      5 O           8.8285    2.1982    0.0000 O.2     1  UNL1       -0.2896
      6 O          12.7425    3.0231    0.0000 O.3     1  UNL1       -0.4546
      7 O          12.3854    4.7179    0.0000 O.2     1  UNL1       -0.2511
      8 C           7.9288   -1.7518    0.0000 C.3     1  UNL1       -0.0203
      9 C           7.9288   -0.7518    0.0000 C.3     1  UNL1       -0.0181
     10 C           7.0628   -2.2518    0.0000 C.3     1  UNL1       -0.0257
     11 C           6.1968   -1.7518    0.0000 C.3     1  UNL1       -0.0218
     12 C           8.8750   -0.4471    0.0000 C.3     1  UNL1        0.0267
     13 C           8.8750   -2.0566    0.0000 C.3     1  UNL1       -0.0203
     14 C           7.0628   -0.2518    0.0000 C.3     1  UNL1       -0.0462
     15 C           6.1968   -0.7518    0.0000 C.3     1  UNL1       -0.0463
     16 C           5.2868   -2.2587    0.0000 C.3     1  UNL1       -0.0112
     17 C           9.4586   -1.2518    0.0000 C.3     1  UNL1        0.0621
     18 C           7.0789   -3.2933    0.0000 C.3     1  UNL1       -0.0306
     19 C           7.9288   -2.7518    0.0000 C.3     1  UNL1       -0.0587
     20 C           7.9288    0.2482    0.0000 C.3     1  UNL1       -0.0586
     21 C           5.2787   -3.3003    0.0000 C.2     1  UNL1       -0.0616
     22 C           9.1857    0.5034    0.0000 C.3     1  UNL1        0.1304
     23 C           5.3307   -1.2518    0.0000 C.3     1  UNL1       -0.0587
     24 C           4.3599   -1.6946    0.0000 C.3     1  UNL1       -0.0173
     25 C           6.1808   -3.8211    0.0000 C.2     1  UNL1       -0.0836
     26 C           4.3433   -3.8500    0.0000 C.3     1  UNL1        0.0147
     27 C           3.4120   -2.2225    0.0000 C.3     1  UNL1        0.0824
     28 C           3.4037   -3.3075    0.0000 C.3     1  UNL1        0.0898
     29 C           8.2352    0.8141    0.0000 C.3     1  UNL1       -0.0284
     30 C           9.4964    1.4540    0.0000 C.2     1  UNL1        0.1873
     31 C           3.8467   -4.7179    0.0000 C.3     1  UNL1       -0.0536
     32 C           4.8466   -4.7141    0.0000 C.3     1  UNL1       -0.0536
     33 C          10.4749    1.6602    0.0000 C.2     1  UNL1       -0.0165
     34 C          10.7855    2.6107    0.0000 C.2     1  UNL1       -0.0381
     35 C          11.7640    2.8169    0.0000 C.3     1  UNL1        0.1264
     36 C          11.5578    3.7954    0.0000 C.3     1  UNL1       -0.0214
     37 C          11.9703    1.8384    0.0000 C.3     1  UNL1       -0.0214
     38 C          13.0532    3.9736    0.0000 C.2     1  UNL1        0.3047
     39 C          14.0317    4.1799    0.0000 C.3     1  UNL1        0.0333
     40 H           7.8022   -2.6711    0.0000 H       1  UNL1        0.0315
     41 H           9.7148   -0.3152    0.0000 H       1  UNL1        0.0363
     42 H           8.6240   -2.6235    0.0000 H       1  UNL1        0.0296
     43 H           9.4124   -2.3658    0.0000 H       1  UNL1        0.0296
     44 H           7.4613    0.2231    0.0000 H       1  UNL1        0.0271
     45 H           6.6643    0.2231    0.0000 H       1  UNL1        0.0271
     46 H           5.9847   -0.1692    0.0000 H       1  UNL1        0.0271
     47 H           5.5862   -0.8595    0.0000 H       1  UNL1        0.0271
     48 H           6.0179   -2.6922    0.0000 H       1  UNL1        0.0352
     49 H           9.7404   -1.8041    0.0000 H       1  UNL1        0.0597
     50 H           7.2969   -3.8737    0.0000 H       1  UNL1        0.0310
     51 H           7.6880   -3.1778    0.0000 H       1  UNL1        0.0310
     52 H           7.3088   -2.7518    0.0000 H       1  UNL1        0.0235
     53 H           7.9288   -3.3718    0.0000 H       1  UNL1        0.0235
     54 H           8.5488   -2.7518    0.0000 H       1  UNL1        0.0235
     55 H           8.5488    0.2482    0.0000 H       1  UNL1        0.0235
     56 H           7.9288    0.8682    0.0000 H       1  UNL1        0.0235
     57 H           7.3088    0.2482    0.0000 H       1  UNL1        0.0235
     58 H           5.6407   -0.7149    0.0000 H       1  UNL1        0.0235
     59 H           4.7938   -0.9418    0.0000 H       1  UNL1        0.0235
     60 H           5.0207   -1.7888    0.0000 H       1  UNL1        0.0235
     61 H           4.7681   -1.2279    0.0000 H       1  UNL1        0.0297
     62 H           3.9700   -1.2126    0.0000 H       1  UNL1        0.0297
     63 H           6.1832   -4.4411    0.0000 H       1  UNL1        0.0572
     64 H           2.8722   -2.5274    0.0000 H       1  UNL1        0.0619
     65 H           3.4025   -3.9275    0.0000 H       1  UNL1        0.0628
     66 H          10.7687   -1.7888    0.0000 H       1  UNL1        0.2098
     67 H           8.4278    1.4034    0.0000 H       1  UNL1        0.0262
     68 H           7.6459    1.0067    0.0000 H       1  UNL1        0.0262
     69 H           8.0426    0.2248    0.0000 H       1  UNL1        0.0262
     70 H           3.3085   -4.4100    0.0000 H       1  UNL1        0.0239
     71 H           3.5387   -5.2561    0.0000 H       1  UNL1        0.0239
     72 H           4.3848   -5.0259    0.0000 H       1  UNL1        0.0239
     73 H           4.3109   -5.0262    0.0000 H       1  UNL1        0.0239
     74 H           5.1587   -5.2498    0.0000 H       1  UNL1        0.0239
     75 H           5.3824   -4.4020    0.0000 H       1  UNL1        0.0239
     76 H          10.5977    0.6068    0.0000 H       1  UNL1        0.2108
     77 H           2.5590   -1.0926    0.0000 H       1  UNL1        0.2099
     78 H           2.0000   -3.4921    0.0000 H       1  UNL1        0.2099
     79 H          10.8889    1.1987    0.0000 H       1  UNL1        0.0651
     80 H          10.3715    3.0722    0.0000 H       1  UNL1        0.0612
     81 H          12.1645    3.9233    0.0000 H       1  UNL1        0.0271
     82 H          11.4300    4.4021    0.0000 H       1  UNL1        0.0271
     83 H          10.9511    3.6676    0.0000 H       1  UNL1        0.0271
     84 H          11.3636    1.7105    0.0000 H       1  UNL1        0.0271
     85 H          12.0981    1.2317    0.0000 H       1  UNL1        0.0271
     86 H          12.5769    1.9662    0.0000 H       1  UNL1        0.0271
     87 H          14.1596    3.5732    0.0000 H       1  UNL1        0.0342
     88 H          14.6384    4.3077    0.0000 H       1  UNL1        0.0342
     89 H          13.9039    4.7865    0.0000 H       1  UNL1        0.0342
@<TRIPOS>BOND
     1    17     1    1
     2     1    66    1
     3    22     2    1
     4     2    76    1
     5    27     3    1
     6     3    77    1
     7    28     4    1
     8     4    78    1
     9     5    30    2
    10     6    35    1
    11     6    38    1
    12     7    38    2
    13     8     9    1
    14     8    10    1
    15     8    13    1
    16     8    19    1
    17     9    12    1
    18     9    14    1
    19     9    20    1
    20    10    11    1
    21    10    18    1
    22    10    40    1
    23    11    15    1
    24    11    16    1
    25    11    23    1
    26    12    17    1
    27    12    22    1
    28    12    41    1
    29    13    17    1
    30    13    42    1
    31    13    43    1
    32    14    15    1
    33    14    44    1
    34    14    45    1
    35    15    46    1
    36    15    47    1
    37    16    21    1
    38    16    24    1
    39    16    48    1
    40    17    49    1
    41    18    25    1
    42    18    50    1
    43    18    51    1
    44    19    52    1
    45    19    53    1
    46    19    54    1
    47    20    55    1
    48    20    56    1
    49    20    57    1
    50    21    25    2
    51    21    26    1
    52    22    29    1
    53    22    30    1
    54    23    58    1
    55    23    59    1
    56    23    60    1
    57    24    27    1
    58    24    61    1
    59    24    62    1
    60    25    63    1
    61    26    28    1
    62    26    31    1
    63    26    32    1
    64    27    28    1
    65    27    64    1
    66    28    65    1
    67    29    67    1
    68    29    68    1
    69    29    69    1
    70    30    33    1
    71    31    70    1
    72    31    71    1
    73    31    72    1
    74    32    73    1
    75    32    74    1
    76    32    75    1
    77    33    34    2
    78    33    79    1
    79    34    35    1
    80    34    80    1
    81    35    36    1
    82    35    37    1
    83    36    81    1
    84    36    82    1
    85    36    83    1
    86    37    84    1
    87    37    85    1
    88    37    86    1
    89    38    39    1
    90    39    87    1
    91    39    88    1
    92    39    89    1
