@<TRIPOS>MOLECULE
IMPHY008981
 17 19 0 0 0
SMALL
GASTEIGER

@<TRIPOS>ATOM
      1 O           4.0376   -0.4524    0.0000 O.3     1  UNL1       -0.4484
      2 O           2.2037   -0.8994    0.0000 O.2     1  UNL1       -0.2452
      3 C           4.7047    0.2846    0.0000 C.3     1  UNL1        0.1577
      4 C           5.5708    0.7846    0.0000 C.3     1  UNL1        0.0414
      5 C           3.8387    0.7846    0.0000 C.3     1  UNL1        0.0693
      6 C           5.5708    1.7846    0.0000 C.3     1  UNL1        0.0037
      7 C           3.8387    1.7846    0.0000 C.3     1  UNL1        0.0084
      8 C           4.7047    2.2846    0.0000 C.3     1  UNL1        0.0006
      9 C           6.4808    0.2778    0.0000 C.3     1  UNL1        0.0081
     10 C           4.6887   -0.7569    0.0000 C.2     1  UNL1        0.0047
     11 C           6.4888   -0.7638    0.0000 C.3     1  UNL1        0.0219
     12 C           2.8669    0.5754    0.0000 C.2     1  UNL1        0.0568
     13 C           5.5867   -1.2846    0.0000 C.2     1  UNL1       -0.0449
     14 C           6.4368    2.2846    0.0000 C.3     1  UNL1        0.0001
     15 C           2.9468   -0.2303    0.0000 C.2     1  UNL1        0.3374
     16 C           5.5829   -2.2846    0.0000 C.3     1  UNL1        0.0261
     17 C           2.0000    1.0739    0.0000 C.2     1  UNL1        0.0021
@<TRIPOS>BOND
     1     1    15    1
     2     2    15    2
     3     3     1    1
     4     3     4    1
     5     3     5    1
     6     3    10    1
     7     4     6    1
     8     4     9    1
     9     5     7    1
    10     5    12    1
    11     6     8    1
    12     6    14    1
    13     7     8    1
    14     9    11    1
    15    10    13    2
    16    11    13    1
    17    12    15    1
    18    12    17    2
    19    13    16    1
