@<TRIPOS>MOLECULE
IMPHY016327
 18 17 0 0 0
SMALL
GASTEIGER

@<TRIPOS>ATOM
      1 O           2.8660   -1.2500    0.0000 O.2     1  UNL1       -0.2977
      2 O           5.4641    1.2500    0.0000 O.2     1  UNL1       -0.2977
      3 C           3.7320    0.2500    0.0000 C.3     1  UNL1        0.0122
      4 C           4.5981   -0.2500    0.0000 C.3     1  UNL1        0.0122
      5 C           2.8660   -0.2500    0.0000 C.2     1  UNL1        0.1307
      6 C           5.4641    0.2500    0.0000 C.2     1  UNL1        0.1307
      7 C           2.0000    0.2500    0.0000 C.3     1  UNL1       -0.0061
      8 C           6.3301   -0.2500    0.0000 C.3     1  UNL1       -0.0061
      9 H           4.1306    0.7249    0.0000 H       1  UNL1        0.0345
     10 H           3.3335    0.7249    0.0000 H       1  UNL1        0.0345
     11 H           4.1996   -0.7249    0.0000 H       1  UNL1        0.0345
     12 H           4.9966   -0.7249    0.0000 H       1  UNL1        0.0345
     13 H           2.3100    0.7869    0.0000 H       1  UNL1        0.0306
     14 H           1.4631    0.5600    0.0000 H       1  UNL1        0.0306
     15 H           1.6900   -0.2869    0.0000 H       1  UNL1        0.0306
     16 H           6.0201   -0.7869    0.0000 H       1  UNL1        0.0306
     17 H           6.8671   -0.5600    0.0000 H       1  UNL1        0.0306
     18 H           6.6401    0.2869    0.0000 H       1  UNL1        0.0306
@<TRIPOS>BOND
     1     1     5    2
     2     2     6    2
     3     3     4    1
     4     3     5    1
     5     3     9    1
     6     3    10    1
     7     4     6    1
     8     4    11    1
     9     4    12    1
    10     5     7    1
    11     6     8    1
    12     7    13    1
    13     7    14    1
    14     7    15    1
    15     8    16    1
    16     8    17    1
    17     8    18    1
