@<TRIPOS>MOLECULE
IMPHY003321
 35 37 0 0 0
SMALL
GASTEIGER

@<TRIPOS>ATOM
      1 O           6.3580   -0.9259    0.0000 O.3     1  UNL1       -0.4828
      2 O           6.3465    2.1433    0.0000 O.2     1  UNL1       -0.2917
      3 O           4.5981    2.1087    0.0000 O.3     1  UNL1       -0.5027
      4 O           2.8660    1.1087    0.0000 O.3     1  UNL1       -0.4885
      5 O           2.8660   -0.8913    0.0000 O.3     1  UNL1       -0.5031
      6 C           7.2641   -0.4121    0.0000 C.3     1  UNL1        0.1322
      7 C           7.2641    0.6296    0.0000 C.3     1  UNL1        0.0520
      8 C           5.4641    0.6087    0.0000 C.ar    1  UNL1        0.1043
      9 C           6.3580    1.1434    0.0000 C.2     1  UNL1        0.1741
     10 C           5.4641   -0.3913    0.0000 C.ar    1  UNL1        0.1391
     11 C           8.1282   -0.9154    0.0000 C.ar    1  UNL1       -0.0069
     12 C           4.5981    1.1087    0.0000 C.ar    1  UNL1        0.1764
     13 C           4.5981   -0.8913    0.0000 C.ar    1  UNL1        0.0262
     14 C           3.7320    0.6087    0.0000 C.ar    1  UNL1        0.2040
     15 C           8.1244   -1.9154    0.0000 C.ar    1  UNL1       -0.0551
     16 C           8.9962   -0.4188    0.0000 C.ar    1  UNL1       -0.0551
     17 C           3.7320   -0.3913    0.0000 C.ar    1  UNL1        0.1657
     18 C           8.9884   -2.4187    0.0000 C.ar    1  UNL1       -0.0614
     19 C           9.8602   -0.9221    0.0000 C.ar    1  UNL1       -0.0614
     20 C           9.8564   -1.9221    0.0000 C.ar    1  UNL1       -0.0617
     21 C           2.0000    0.6087    0.0000 C.3     1  UNL1        0.0791
     22 H           7.2605   -1.0321    0.0000 H       1  UNL1        0.0789
     23 H           7.8750    0.5235    0.0000 H       1  UNL1        0.0385
     24 H           7.4732    1.2132    0.0000 H       1  UNL1        0.0385
     25 H           4.5981   -1.5113    0.0000 H       1  UNL1        0.0692
     26 H           7.5862   -2.2233    0.0000 H       1  UNL1        0.0621
     27 H           8.9985    0.2012    0.0000 H       1  UNL1        0.0621
     28 H           8.9860   -3.0387    0.0000 H       1  UNL1        0.0618
     29 H          10.3984   -0.6142    0.0000 H       1  UNL1        0.0618
     30 H          10.3921   -2.2342    0.0000 H       1  UNL1        0.0618
     31 H           4.0611    2.4187    0.0000 H       1  UNL1        0.2923
     32 H           2.8660   -1.5113    0.0000 H       1  UNL1        0.2923
     33 H           1.6900    1.1457    0.0000 H       1  UNL1        0.0660
     34 H           1.4631    0.2987    0.0000 H       1  UNL1        0.0660
     35 H           2.3100    0.0718    0.0000 H       1  UNL1        0.0660
@<TRIPOS>BOND
     1     1     6    1
     2     1    10    1
     3     2     9    2
     4     3    12    1
     5     3    31    1
     6     4    14    1
     7     4    21    1
     8     5    17    1
     9     5    32    1
    10     6     7    1
    11     6    11    1
    12     6    22    1
    13     7     9    1
    14     7    23    1
    15     7    24    1
    16     8     9    1
    17     8    10   ar
    18     8    12   ar
    19    10    13   ar
    20    11    15   ar
    21    11    16   ar
    22    12    14   ar
    23    13    17   ar
    24    13    25    1
    25    14    17   ar
    26    15    18   ar
    27    15    26    1
    28    16    19   ar
    29    16    27    1
    30    18    20   ar
    31    18    28    1
    32    19    20   ar
    33    19    29    1
    34    20    30    1
    35    21    33    1
    36    21    34    1
    37    21    35    1
