@<TRIPOS>MOLECULE
IMPHY010025
 16 16 0 0 0
SMALL
GASTEIGER

@<TRIPOS>ATOM
      1 O           2.8090    1.1144    0.0000 O.3     1  UNL1       -0.3918
      2 C           2.8090    0.1144    0.0000 C.3     1  UNL1        0.0553
      3 C           2.0000   -0.4734    0.0000 C.3     1  UNL1       -0.0269
      4 C           3.6180   -0.4734    0.0000 C.3     1  UNL1       -0.0269
      5 C           2.3090   -1.4244    0.0000 C.3     1  UNL1       -0.0506
      6 C           3.3090   -1.4244    0.0000 C.3     1  UNL1       -0.0506
      7 H           3.3614    0.3959    0.0000 H       1  UNL1        0.0593
      8 H           1.6900    0.0636    0.0000 H       1  UNL1        0.0290
      9 H           1.4336   -0.7255    0.0000 H       1  UNL1        0.0290
     10 H           4.1844   -0.7255    0.0000 H       1  UNL1        0.0290
     11 H           3.9280    0.0636    0.0000 H       1  UNL1        0.0290
     12 H           1.7026   -1.5533    0.0000 H       1  UNL1        0.0266
     13 H           2.3738   -2.0410    0.0000 H       1  UNL1        0.0266
     14 H           3.2442   -2.0410    0.0000 H       1  UNL1        0.0266
     15 H           3.9155   -1.5533    0.0000 H       1  UNL1        0.0266
     16 H           3.3460    1.4244    0.0000 H       1  UNL1        0.2098
@<TRIPOS>BOND
     1     1     2    1
     2     1    16    1
     3     2     3    1
     4     2     4    1
     5     2     7    1
     6     3     5    1
     7     3     8    1
     8     3     9    1
     9     4     6    1
    10     4    10    1
    11     4    11    1
    12     5     6    1
    13     5    12    1
    14     5    13    1
    15     6    14    1
    16     6    15    1
