@<TRIPOS>MOLECULE
IMPHY006367
 63 64 0 0 0
SMALL
GASTEIGER

@<TRIPOS>ATOM
      1 O           5.0298   -5.2651    0.0000 O.3     1  UNL1       -0.4191
      2 O           2.4608   -4.9561    0.0000 O.2     1  UNL1       -0.5030
      3 O          11.8657    6.1591    0.0000 O.2     1  UNL1       -0.4708
      4 O           5.3086   -7.0252    0.0000 O.2     1  UNL1       -0.2448
      5 C           5.0868   -2.1773    0.0000 C.3     1  UNL1       -0.0466
      6 C           5.0868   -3.1773    0.0000 C.3     1  UNL1       -0.0219
      7 C           5.9529   -1.6773    0.0000 C.3     1  UNL1       -0.0489
      8 C           5.9529   -0.6773    0.0000 C.3     1  UNL1       -0.0320
      9 C           6.8189   -0.1773    0.0000 C.2     1  UNL1       -0.0765
     10 C           5.9529   -3.6773    0.0000 C.3     1  UNL1       -0.0588
     11 C           4.2208   -3.6773    0.0000 C.2     1  UNL1       -0.0350
     12 C           7.6849    1.3227    0.0000 C.3     1  UNL1       -0.0308
     13 C           6.8189    0.8227    0.0000 C.2     1  UNL1       -0.0847
     14 C           7.6849    2.3227    0.0000 C.3     1  UNL1       -0.0286
     15 C           4.2208   -4.6773    0.0000 C.2     1  UNL1        0.1700
     16 C           7.6849   -0.6773    0.0000 C.3     1  UNL1       -0.0438
     17 C           8.5510    2.8227    0.0000 C.2     1  UNL1       -0.0762
     18 C           3.4118   -5.2651    0.0000 C.2     1  UNL1        0.1687
     19 C           8.5510    3.8227    0.0000 C.2     1  UNL1       -0.0847
     20 C           9.4170    4.3227    0.0000 C.3     1  UNL1       -0.0304
     21 C           9.4170    5.3227    0.0000 C.3     1  UNL1       -0.0213
     22 C           3.7208   -6.2161    0.0000 C.2     1  UNL1        0.0788
     23 C           9.4170    2.3227    0.0000 C.3     1  UNL1       -0.0438
     24 C           4.7208   -6.2161    0.0000 C.2     1  UNL1        0.3439
     25 C          10.2830    5.8227    0.0000 C.ar    1  UNL1       -0.0094
     26 C           3.1330   -7.0252    0.0000 C.3     1  UNL1       -0.0293
     27 C          10.3875    6.8172    0.0000 C.ar    1  UNL1       -0.0207
     28 C          11.1965    5.4160    0.0000 C.ar    1  UNL1        0.0948
     29 C          11.3657    7.0252    0.0000 C.ar    1  UNL1        0.0919
     30 H           4.8748   -1.5947    0.0000 H       1  UNL1        0.0271
     31 H           4.4763   -2.2849    0.0000 H       1  UNL1        0.0271
     32 H           5.0868   -4.0273    0.0000 H       1  UNL1        0.0341
     33 H           6.1649   -2.2599    0.0000 H       1  UNL1        0.0268
     34 H           6.5635   -1.5696    0.0000 H       1  UNL1        0.0268
     35 H           5.7408   -0.0947    0.0000 H       1  UNL1        0.0310
     36 H           5.3423   -0.7849    0.0000 H       1  UNL1        0.0310
     37 H           5.6429   -4.2142    0.0000 H       1  UNL1        0.0235
     38 H           6.4898   -3.9873    0.0000 H       1  UNL1        0.0235
     39 H           6.2629   -3.1404    0.0000 H       1  UNL1        0.0235
     40 H           3.6839   -3.3673    0.0000 H       1  UNL1        0.0612
     41 H           7.8970    0.7401    0.0000 H       1  UNL1        0.0310
     42 H           8.2955    1.4304    0.0000 H       1  UNL1        0.0310
     43 H           6.2820    1.1327    0.0000 H       1  UNL1        0.0572
     44 H           7.4729    2.9053    0.0000 H       1  UNL1        0.0313
     45 H           7.0743    2.2151    0.0000 H       1  UNL1        0.0313
     46 H           7.3749   -1.2142    0.0000 H       1  UNL1        0.0274
     47 H           8.2219   -0.9873    0.0000 H       1  UNL1        0.0274
     48 H           7.9949   -0.1404    0.0000 H       1  UNL1        0.0274
     49 H           8.0140    4.1327    0.0000 H       1  UNL1        0.0572
     50 H           9.6290    3.7401    0.0000 H       1  UNL1        0.0311
     51 H          10.0276    4.4304    0.0000 H       1  UNL1        0.0311
     52 H           9.2049    5.9053    0.0000 H       1  UNL1        0.0317
     53 H           8.8064    5.2150    0.0000 H       1  UNL1        0.0317
     54 H           9.1070    1.7858    0.0000 H       1  UNL1        0.0274
     55 H           9.9539    2.0127    0.0000 H       1  UNL1        0.0274
     56 H           9.7270    2.8596    0.0000 H       1  UNL1        0.0274
     57 H           2.6314   -6.6607    0.0000 H       1  UNL1        0.0281
     58 H           2.7686   -7.5267    0.0000 H       1  UNL1        0.0281
     59 H           3.6346   -7.3896    0.0000 H       1  UNL1        0.0281
     60 H           2.0000   -5.3709    0.0000 H       1  UNL1        0.2923
     61 H           9.9268    7.2321    0.0000 H       1  UNL1        0.0652
     62 H          11.3255    4.8095    0.0000 H       1  UNL1        0.1032
     63 H          11.6179    7.5915    0.0000 H       1  UNL1        0.1029
@<TRIPOS>BOND
     1     1    15    1
     2     1    24    1
     3     2    18    1
     4     2    60    1
     5     3    28   ar
     6     3    29   ar
     7     4    24    2
     8     5     6    1
     9     5     7    1
    10     5    30    1
    11     5    31    1
    12     6    10    1
    13     6    11    1
    14     6    32    1
    15     7     8    1
    16     7    33    1
    17     7    34    1
    18     8     9    1
    19     8    35    1
    20     8    36    1
    21     9    13    2
    22     9    16    1
    23    10    37    1
    24    10    38    1
    25    10    39    1
    26    11    15    2
    27    11    40    1
    28    12    13    1
    29    12    14    1
    30    12    41    1
    31    12    42    1
    32    13    43    1
    33    14    17    1
    34    14    44    1
    35    14    45    1
    36    15    18    1
    37    16    46    1
    38    16    47    1
    39    16    48    1
    40    17    19    2
    41    17    23    1
    42    18    22    2
    43    19    20    1
    44    19    49    1
    45    20    21    1
    46    20    50    1
    47    20    51    1
    48    21    25    1
    49    21    52    1
    50    21    53    1
    51    22    24    1
    52    22    26    1
    53    23    54    1
    54    23    55    1
    55    23    56    1
    56    25    27   ar
    57    25    28   ar
    58    26    57    1
    59    26    58    1
    60    26    59    1
    61    27    29   ar
    62    27    61    1
    63    28    62    1
    64    29    63    1
