@<TRIPOS>MOLECULE
IMPHY009554
 22 21 0 0 0
SMALL
GASTEIGER

@<TRIPOS>ATOM
      1 O           3.9030   -1.6051    0.0000 O.3     1  UNL1       -0.3642
      2 O           6.8671    0.2610    0.0000 O.3     1  UNL1       -0.4713
      3 O           6.0010    1.7610    0.0000 O.2     1  UNL1       -0.2352
      4 N           2.5369   -1.2390    0.0000 N.3     1  UNL1       -0.2930
      5 C           2.9030    0.1270    0.0000 C.3     1  UNL1        0.0013
      6 C           3.4030   -0.7390    0.0000 C.3     1  UNL1        0.1789
      7 C           3.4030    0.9930    0.0000 C.3     1  UNL1       -0.0511
      8 C           2.9030    1.8590    0.0000 C.3     1  UNL1       -0.0651
      9 C           4.2690   -0.2390    0.0000 C.1     1  UNL1       -0.0402
     10 C           5.1350    0.2610    0.0000 C.1     1  UNL1        0.0196
     11 C           6.0010    0.7610    0.0000 C.2     1  UNL1        0.3830
     12 H           2.4280    0.5255    0.0000 H       1  UNL1        0.0316
     13 H           2.4280   -0.2715    0.0000 H       1  UNL1        0.0316
     14 H           3.8779    0.5945    0.0000 H       1  UNL1        0.0264
     15 H           3.8779    1.3915    0.0000 H       1  UNL1        0.0264
     16 H           3.4399    2.1690    0.0000 H       1  UNL1        0.0230
     17 H           2.5930    2.3960    0.0000 H       1  UNL1        0.0230
     18 H           2.3660    1.5490    0.0000 H       1  UNL1        0.0230
     19 H           2.0000   -0.9290    0.0000 H       1  UNL1        0.1218
     20 H           2.5369   -1.8590    0.0000 H       1  UNL1        0.1218
     21 H           4.5230   -1.6051    0.0000 H       1  UNL1        0.2127
     22 H           7.4040    0.5710    0.0000 H       1  UNL1        0.2961
@<TRIPOS>BOND
     1     1     6    1
     2     1    21    1
     3     2    11    1
     4     2    22    1
     5     3    11    2
     6     4     6    1
     7     4    19    1
     8     4    20    1
     9     5     6    1
    10     5     7    1
    11     5    12    1
    12     5    13    1
    13     6     9    1
    14     7     8    1
    15     7    14    1
    16     7    15    1
    17     8    16    1
    18     8    17    1
    19     8    18    1
    20     9    10    3
    21    10    11    1
