@<TRIPOS>MOLECULE
IMPHY009049
 68 72 0 0 0
SMALL
GASTEIGER

@<TRIPOS>ATOM
      1 O           8.1223   -3.1589    0.0000 O.3     1  UNL1       -0.4608
      2 O           5.5103    0.3695    0.0000 O.3     1  UNL1       -0.3914
      3 O           4.6497   -0.1274    0.0000 O.2     1  UNL1       -0.2882
      4 O           9.6855    0.7467    0.0000 O.2     1  UNL1       -0.2964
      5 O           9.8438   -3.1917    0.0000 O.2     1  UNL1       -0.2508
      6 O           2.8680   -1.1378    0.0000 O.2     1  UNL1       -0.4919
      7 O           6.9906    2.7058    0.0000 O.3     1  UNL1       -0.4639
      8 O           7.9669    4.1966    0.0000 O.2     1  UNL1       -0.2508
      9 C           7.2641   -1.6620    0.0000 C.3     1  UNL1        0.0152
     10 C           6.3981   -1.1620    0.0000 C.3     1  UNL1        0.0069
     11 C           8.1741   -1.1551    0.0000 C.3     1  UNL1       -0.0097
     12 C           5.5320   -1.6620    0.0000 C.3     1  UNL1        0.0430
     13 C           7.2641   -2.6620    0.0000 C.3     1  UNL1        0.1093
     14 C           5.5320   -2.6620    0.0000 C.3     1  UNL1       -0.0187
     15 C           8.1821   -0.1135    0.0000 C.3     1  UNL1        0.0329
     16 C           6.3820   -0.1205    0.0000 C.3     1  UNL1        0.0605
     17 C           6.3981   -3.1620    0.0000 C.3     1  UNL1       -0.0109
     18 C           7.2800    0.4073    0.0000 C.3     1  UNL1       -0.0141
     19 C           7.2641   -0.6620    0.0000 C.3     1  UNL1       -0.0555
     20 C           9.0134   -1.6834    0.0000 C.3     1  UNL1        0.0493
     21 C           4.6381   -3.1966    0.0000 C.3     1  UNL1       -0.0181
     22 C           5.5320   -0.6620    0.0000 C.3     1  UNL1       -0.0517
     23 C           4.6381   -1.1273    0.0000 C.2     1  UNL1        0.2034
     24 C           9.1821   -0.1174    0.0000 C.3     1  UNL1       -0.0524
     25 C           8.6855    0.7506    0.0000 C.2     1  UNL1        0.1464
     26 C           8.9878   -2.6747    0.0000 C.2     1  UNL1        0.3077
     27 C           3.7320   -2.6828    0.0000 C.2     1  UNL1       -0.0356
     28 C           3.7320   -1.6412    0.0000 C.2     1  UNL1        0.1592
     29 C           8.1888    1.6185    0.0000 C.3     1  UNL1        0.0622
     30 C           4.6497   -4.1966    0.0000 C.3     1  UNL1       -0.0585
     31 C           8.5991    2.5305    0.0000 C.3     1  UNL1        0.0576
     32 C           7.1947    1.7269    0.0000 C.3     1  UNL1        0.1025
     33 C           7.8585    3.2025    0.0000 C.2     1  UNL1        0.3079
     34 C           2.0000   -1.6345    0.0000 C.3     1  UNL1        0.0789
     35 H           5.6587   -0.7427    0.0000 H       1  UNL1        0.0342
     36 H           8.9198   -0.7471    0.0000 H       1  UNL1        0.0322
     37 H           7.2636   -3.5120    0.0000 H       1  UNL1        0.0739
     38 H           5.5386   -3.5120    0.0000 H       1  UNL1        0.0317
     39 H           5.8493   -0.4377    0.0000 H       1  UNL1        0.0597
     40 H           5.9995   -3.6369    0.0000 H       1  UNL1        0.0304
     41 H           6.7966   -3.6369    0.0000 H       1  UNL1        0.0304
     42 H           7.6774    0.8832    0.0000 H       1  UNL1        0.0300
     43 H           6.8791    0.8802    0.0000 H       1  UNL1        0.0300
     44 H           7.8841   -0.6620    0.0000 H       1  UNL1        0.0236
     45 H           7.2641   -0.0420    0.0000 H       1  UNL1        0.0236
     46 H           6.6441   -0.6620    0.0000 H       1  UNL1        0.0236
     47 H           9.6205   -1.8092    0.0000 H       1  UNL1        0.0381
     48 H           9.2452   -1.1083    0.0000 H       1  UNL1        0.0381
     49 H           4.1042   -3.5118    0.0000 H       1  UNL1        0.0344
     50 H           6.1520   -0.6620    0.0000 H       1  UNL1        0.0239
     51 H           5.5320   -0.0420    0.0000 H       1  UNL1        0.0239
     52 H           4.9120   -0.6620    0.0000 H       1  UNL1        0.0239
     53 H           9.1797   -0.7374    0.0000 H       1  UNL1        0.0239
     54 H           9.8021   -0.1198    0.0000 H       1  UNL1        0.0239
     55 H           9.1845    0.5026    0.0000 H       1  UNL1        0.0239
     56 H           3.1963   -2.9949    0.0000 H       1  UNL1        0.0612
     57 H           5.5031    0.9894    0.0000 H       1  UNL1        0.2098
     58 H           7.8491    1.0998    0.0000 H       1  UNL1        0.0416
     59 H           4.0297   -4.2037    0.0000 H       1  UNL1        0.0235
     60 H           4.6568   -4.8165    0.0000 H       1  UNL1        0.0235
     61 H           5.2696   -4.1894    0.0000 H       1  UNL1        0.0235
     62 H           9.1348    2.2184    0.0000 H       1  UNL1        0.0385
     63 H           8.9654    3.0307    0.0000 H       1  UNL1        0.0385
     64 H           6.5778    1.6644    0.0000 H       1  UNL1        0.0704
     65 H           7.1923    1.1069    0.0000 H       1  UNL1        0.0704
     66 H           1.6921   -1.0964    0.0000 H       1  UNL1        0.0660
     67 H           1.4619   -1.9424    0.0000 H       1  UNL1        0.0660
     68 H           2.3079   -2.1726    0.0000 H       1  UNL1        0.0660
@<TRIPOS>BOND
     1     1    13    1
     2     1    26    1
     3    16     2    1
     4     2    57    1
     5     3    23    2
     6     4    25    2
     7     5    26    2
     8     6    28    1
     9     6    34    1
    10     7    32    1
    11     7    33    1
    12     8    33    2
    13     9    10    1
    14     9    11    1
    15     9    13    1
    16     9    19    1
    17    10    12    1
    18    10    16    1
    19    10    35    1
    20    11    15    1
    21    11    20    1
    22    11    36    1
    23    12    14    1
    24    12    22    1
    25    12    23    1
    26    13    17    1
    27    13    37    1
    28    14    17    1
    29    14    21    1
    30    14    38    1
    31    15    18    1
    32    15    24    1
    33    15    25    1
    34    16    18    1
    35    16    39    1
    36    17    40    1
    37    17    41    1
    38    18    42    1
    39    18    43    1
    40    19    44    1
    41    19    45    1
    42    19    46    1
    43    20    26    1
    44    20    47    1
    45    20    48    1
    46    21    27    1
    47    21    30    1
    48    21    49    1
    49    22    50    1
    50    22    51    1
    51    22    52    1
    52    23    28    1
    53    24    53    1
    54    24    54    1
    55    24    55    1
    56    29    25    1
    57    27    28    2
    58    27    56    1
    59    29    31    1
    60    29    32    1
    61    29    58    1
    62    30    59    1
    63    30    60    1
    64    30    61    1
    65    31    33    1
    66    31    62    1
    67    31    63    1
    68    32    64    1
    69    32    65    1
    70    34    66    1
    71    34    67    1
    72    34    68    1
