@<TRIPOS>MOLECULE
IMPHY005773
 99 105 0 0 0
SMALL
GASTEIGER

@<TRIPOS>ATOM
      1 O           9.0346    4.0395    0.0000 O.3     1  UNL1       -0.4908
      2 O           6.3923    0.4839    0.0000 O.3     1  UNL1       -0.4520
      3 O          10.8005    5.0773    0.0000 O.3     1  UNL1       -0.4914
      4 O           6.3923    2.5322    0.0000 O.3     1  UNL1       -0.4914
      5 O           5.5627   -4.0408    0.0000 O.3     1  UNL1       -0.4914
      6 O           3.8463   -5.0674    0.0000 O.3     1  UNL1       -0.4914
      7 O           6.4077   -3.5160    0.0000 O.3     1  UNL1       -0.4914
      8 O           8.1359   -2.5094    0.0000 O.3     1  UNL1       -0.4913
      9 N          11.6467    0.5111    0.0000 N.3     1  UNL1       -0.2978
     10 N           2.8939   -0.5122    0.0000 N.3     1  UNL1       -0.2978
     11 C          10.7884    1.0081    0.0000 C.3     1  UNL1        0.0403
     12 C          10.7884    2.0081    0.0000 C.ar    1  UNL1       -0.0153
     13 C           9.9224    0.5081    0.0000 C.3     1  UNL1       -0.0072
     14 C          11.6984    2.5149    0.0000 C.ar    1  UNL1       -0.0372
     15 C          12.5121    0.9953    0.0000 C.3     1  UNL1        0.0032
     16 C           9.9224    2.5081    0.0000 C.ar    1  UNL1        0.0327
     17 C          12.5378    1.9867    0.0000 C.3     1  UNL1       -0.0144
     18 C           9.0564    1.0081    0.0000 C.ar    1  UNL1       -0.0340
     19 C           9.0564    2.0081    0.0000 C.ar    1  UNL1       -0.0070
     20 C           9.9064    3.5496    0.0000 C.ar    1  UNL1        0.1695
     21 C          11.7065    3.5565    0.0000 C.ar    1  UNL1       -0.0127
     22 C          11.6393   -0.4888    0.0000 C.3     1  UNL1       -0.0122
     23 C          10.8044    4.0773    0.0000 C.ar    1  UNL1        0.1624
     24 C           8.1624    0.4734    0.0000 C.ar    1  UNL1       -0.0119
     25 C           3.8000   -1.0261    0.0000 C.3     1  UNL1        0.0398
     26 C           8.1624    2.5427    0.0000 C.ar    1  UNL1       -0.0082
     27 C           3.8000   -2.0677    0.0000 C.ar    1  UNL1       -0.0231
     28 C           7.2564    0.9872    0.0000 C.ar    1  UNL1        0.1701
     29 C           4.6641   -0.5228    0.0000 C.3     1  UNL1       -0.0043
     30 C           2.0000   -1.0469    0.0000 C.3     1  UNL1        0.0032
     31 C           7.2564    2.0289    0.0000 C.ar    1  UNL1        0.1627
     32 C           2.0241   -2.0882    0.0000 C.3     1  UNL1       -0.0144
     33 C           2.9418   -2.5810    0.0000 C.ar    1  UNL1       -0.0378
     34 C           5.5320   -1.0194    0.0000 C.ar    1  UNL1        0.0004
     35 C           2.8824    0.4877    0.0000 C.3     1  UNL1       -0.0122
     36 C           4.6736   -2.5543    0.0000 C.ar    1  UNL1       -0.0114
     37 C           6.3961   -0.5161    0.0000 C.ar    1  UNL1        0.1355
     38 C           2.9572   -3.5809    0.0000 C.ar    1  UNL1       -0.0128
     39 C           4.6891   -3.5542    0.0000 C.ar    1  UNL1        0.1618
     40 C           3.8308   -4.0675    0.0000 C.ar    1  UNL1        0.1618
     41 C           5.5359   -2.0194    0.0000 C.ar    1  UNL1       -0.0096
     42 C           9.0230    5.0395    0.0000 C.3     1  UNL1        0.0790
     43 C           7.2641   -1.0127    0.0000 C.ar    1  UNL1        0.0263
     44 C          11.6646    5.5806    0.0000 C.3     1  UNL1        0.0790
     45 C           6.4038   -2.5161    0.0000 C.ar    1  UNL1        0.1620
     46 C           7.2679   -2.0127    0.0000 C.ar    1  UNL1        0.1650
     47 C           6.3961    3.5322    0.0000 C.3     1  UNL1        0.0790
     48 C           5.5781   -5.0407    0.0000 C.3     1  UNL1        0.0790
     49 C           2.9880   -5.5806    0.0000 C.3     1  UNL1        0.0790
     50 C           7.2756   -4.0127    0.0000 C.3     1  UNL1        0.0790
     51 C           9.0000   -2.0060    0.0000 C.3     1  UNL1        0.0790
     52 H          10.7879    0.1581    0.0000 H       1  UNL1        0.0516
     53 H           9.5239    0.0331    0.0000 H       1  UNL1        0.0332
     54 H          10.3209    0.0331    0.0000 H       1  UNL1        0.0332
     55 H          12.7139    0.4090    0.0000 H       1  UNL1        0.0430
     56 H          13.1249    1.0897    0.0000 H       1  UNL1        0.0430
     57 H          13.1448    1.8608    0.0000 H       1  UNL1        0.0326
     58 H          12.7695    2.5617    0.0000 H       1  UNL1        0.0326
     59 H          12.2446    3.8644    0.0000 H       1  UNL1        0.0658
     60 H          11.0193   -0.4842    0.0000 H       1  UNL1        0.0391
     61 H          11.6347   -1.1088    0.0000 H       1  UNL1        0.0391
     62 H          12.2592   -0.4934    0.0000 H       1  UNL1        0.0391
     63 H           3.7964   -0.4061    0.0000 H       1  UNL1        0.0515
     64 H           8.1696   -0.1466    0.0000 H       1  UNL1        0.0658
     65 H           8.1696    3.1627    0.0000 H       1  UNL1        0.0661
     66 H           5.0608   -0.0463    0.0000 H       1  UNL1        0.0333
     67 H           4.2637   -0.0493    0.0000 H       1  UNL1        0.0333
     68 H           1.7775   -0.4682    0.0000 H       1  UNL1        0.0430
     69 H           1.3918   -1.1671    0.0000 H       1  UNL1        0.0430
     70 H           1.4109   -1.9963    0.0000 H       1  UNL1        0.0326
     71 H           1.8286   -2.6766    0.0000 H       1  UNL1        0.0326
     72 H           3.5023    0.4949    0.0000 H       1  UNL1        0.0391
     73 H           2.8752    1.1076    0.0000 H       1  UNL1        0.0391
     74 H           2.2624    0.4805    0.0000 H       1  UNL1        0.0391
     75 H           5.2057   -2.2361    0.0000 H       1  UNL1        0.0659
     76 H           2.4251   -3.8991    0.0000 H       1  UNL1        0.0658
     77 H           5.0002   -2.3315    0.0000 H       1  UNL1        0.0659
     78 H           9.6430    5.0466    0.0000 H       1  UNL1        0.0660
     79 H           9.0159    5.6594    0.0000 H       1  UNL1        0.0660
     80 H           8.4031    5.0323    0.0000 H       1  UNL1        0.0660
     81 H           7.7998   -0.7007    0.0000 H       1  UNL1        0.0692
     82 H          11.9767    5.0449    0.0000 H       1  UNL1        0.0660
     83 H          12.2004    5.8927    0.0000 H       1  UNL1        0.0660
     84 H          11.3526    6.1164    0.0000 H       1  UNL1        0.0660
     85 H           7.0161    3.5298    0.0000 H       1  UNL1        0.0660
     86 H           6.3985    4.1522    0.0000 H       1  UNL1        0.0660
     87 H           5.7761    3.5346    0.0000 H       1  UNL1        0.0660
     88 H           4.9582   -5.0502    0.0000 H       1  UNL1        0.0660
     89 H           5.5877   -5.6606    0.0000 H       1  UNL1        0.0660
     90 H           6.1980   -5.0311    0.0000 H       1  UNL1        0.0660
     91 H           2.6698   -5.0486    0.0000 H       1  UNL1        0.0660
     92 H           2.4560   -5.8989    0.0000 H       1  UNL1        0.0660
     93 H           3.3063   -6.1128    0.0000 H       1  UNL1        0.0660
     94 H           6.9677   -4.5508    0.0000 H       1  UNL1        0.0660
     95 H           7.8138   -4.3206    0.0000 H       1  UNL1        0.0660
     96 H           7.5836   -3.4746    0.0000 H       1  UNL1        0.0660
     97 H           9.3120   -2.5418    0.0000 H       1  UNL1        0.0660
     98 H           9.5357   -1.6940    0.0000 H       1  UNL1        0.0660
     99 H           8.6879   -1.4703    0.0000 H       1  UNL1        0.0660
@<TRIPOS>BOND
     1     1    20    1
     2     1    42    1
     3     2    28    1
     4     2    37    1
     5     3    23    1
     6     3    44    1
     7     4    31    1
     8     4    47    1
     9     5    39    1
    10     5    48    1
    11     6    40    1
    12     6    49    1
    13     7    45    1
    14     7    50    1
    15     8    46    1
    16     8    51    1
    17     9    11    1
    18     9    15    1
    19     9    22    1
    20    10    25    1
    21    10    30    1
    22    10    35    1
    23    11    12    1
    24    11    13    1
    25    11    52    1
    26    12    14   ar
    27    12    16   ar
    28    13    18    1
    29    13    53    1
    30    13    54    1
    31    14    17    1
    32    14    21   ar
    33    15    17    1
    34    15    55    1
    35    15    56    1
    36    16    19    1
    37    16    20   ar
    38    17    57    1
    39    17    58    1
    40    18    19   ar
    41    18    24   ar
    42    19    26   ar
    43    20    23   ar
    44    21    23   ar
    45    21    59    1
    46    22    60    1
    47    22    61    1
    48    22    62    1
    49    24    28   ar
    50    24    64    1
    51    25    27    1
    52    25    29    1
    53    25    63    1
    54    26    31   ar
    55    26    65    1
    56    27    33   ar
    57    27    36   ar
    58    28    31   ar
    59    29    34    1
    60    29    66    1
    61    29    67    1
    62    30    32    1
    63    30    68    1
    64    30    69    1
    65    32    33    1
    66    32    70    1
    67    32    71    1
    68    33    38   ar
    69    34    37   ar
    70    34    41   ar
    71    35    72    1
    72    35    73    1
    73    35    74    1
    74    36    39   ar
    75    36    75    1
    76    37    43   ar
    77    38    40   ar
    78    38    76    1
    79    39    40   ar
    80    41    45   ar
    81    41    77    1
    82    42    78    1
    83    42    79    1
    84    42    80    1
    85    43    46   ar
    86    43    81    1
    87    44    82    1
    88    44    83    1
    89    44    84    1
    90    45    46   ar
    91    47    85    1
    92    47    86    1
    93    47    87    1
    94    48    88    1
    95    48    89    1
    96    48    90    1
    97    49    91    1
    98    49    92    1
    99    49    93    1
   100    50    94    1
   101    50    95    1
   102    50    96    1
   103    51    97    1
   104    51    98    1
   105    51    99    1
