@<TRIPOS>MOLECULE
IMPHY003997
 30 30 0 0 0
SMALL
GASTEIGER

@<TRIPOS>ATOM
      1 O           4.2690    1.0000    0.0000 O.3     1  UNL1       -0.3414
      2 O           4.2690   -2.0000    0.0000 O.3     1  UNL1       -0.3871
      3 O           2.5369   -1.0000    0.0000 O.3     1  UNL1       -0.3865
      4 O           6.0010    1.0000    0.0000 O.3     1  UNL1       -0.3654
      5 O           2.5369    2.0000    0.0000 O.3     1  UNL1       -0.3924
      6 O           6.8671    0.5000    0.0000 O.2     1  UNL1       -0.2761
      7 N           6.0010   -1.0000    0.0000 N.am    1  UNL1       -0.3053
      8 C           4.2690   -1.0000    0.0000 C.3     1  UNL1        0.1065
      9 C           5.1350   -0.5000    0.0000 C.3     1  UNL1        0.1021
     10 C           3.4030   -0.5000    0.0000 C.3     1  UNL1        0.1112
     11 C           3.4030    0.5000    0.0000 C.3     1  UNL1        0.1129
     12 C           5.1350    0.5000    0.0000 C.3     1  UNL1        0.1776
     13 C           2.5369    1.0000    0.0000 C.3     1  UNL1        0.0730
     14 C           6.8671   -0.5000    0.0000 C.2     1  UNL1        0.2104
     15 C           7.7331   -1.0000    0.0000 C.3     1  UNL1        0.0122
     16 H           4.8059   -1.3100    0.0000 H       1  UNL1        0.0640
     17 H           5.6720   -0.1900    0.0000 H       1  UNL1        0.0575
     18 H           3.4030   -1.1200    0.0000 H       1  UNL1        0.0646
     19 H           3.4030    1.1200    0.0000 H       1  UNL1        0.0647
     20 H           5.1350    1.1200    0.0000 H       1  UNL1        0.0928
     21 H           1.9264    1.1077    0.0000 H       1  UNL1        0.0584
     22 H           2.3249    0.4174    0.0000 H       1  UNL1        0.0584
     23 H           6.0010   -1.6200    0.0000 H       1  UNL1        0.1492
     24 H           3.7320   -2.3100    0.0000 H       1  UNL1        0.2100
     25 H           2.0000   -0.6900    0.0000 H       1  UNL1        0.2100
     26 H           6.0010    1.6200    0.0000 H       1  UNL1        0.2125
     27 H           2.0000    2.3100    0.0000 H       1  UNL1        0.2095
     28 H           7.4231   -1.5369    0.0000 H       1  UNL1        0.0322
     29 H           8.2700   -1.3100    0.0000 H       1  UNL1        0.0322
     30 H           8.0431   -0.4631    0.0000 H       1  UNL1        0.0322
@<TRIPOS>BOND
     1     1    11    1
     2     1    12    1
     3     8     2    1
     4     2    24    1
     5    10     3    1
     6     3    25    1
     7    12     4    1
     8     4    26    1
     9     5    13    1
    10     5    27    1
    11     6    14    2
    12     9     7    1
    13     7    14   am
    14     7    23    1
    15     8     9    1
    16     8    10    1
    17     8    16    1
    18     9    12    1
    19     9    17    1
    20    10    11    1
    21    10    18    1
    22    11    13    1
    23    11    19    1
    24    12    20    1
    25    13    21    1
    26    13    22    1
    27    14    15    1
    28    15    28    1
    29    15    29    1
    30    15    30    1
