@<TRIPOS>MOLECULE
IMPHY013285
 42 45 0 0 0
SMALL
GASTEIGER

@<TRIPOS>ATOM
      1 O           5.1767    4.1296    0.0000 O.3     1  UNL1       -0.5060
      2 O           3.4446    0.1296    0.0000 O.2     1  UNL1       -0.2865
      3 O           2.5405   -1.3672    0.0000 O.3     1  UNL1       -0.5060
      4 O           6.9088   -1.8704    0.0000 O.2     1  UNL1       -0.2872
      5 O           6.9251    0.0950    0.0000 O.2     1  UNL1       -0.2872
      6 O           6.9251    4.1642    0.0000 O.2     1  UNL1       -0.2871
      7 C           5.1767    1.1296    0.0000 C.ar    1  UNL1        0.0005
      8 C           5.1767    0.1296    0.0000 C.2     1  UNL1        0.0341
      9 C           6.0427    1.6296    0.0000 C.ar    1  UNL1        0.0440
     10 C           4.3107    1.6296    0.0000 C.ar    1  UNL1       -0.0385
     11 C           4.3107   -1.3704    0.0000 C.ar    1  UNL1        0.0744
     12 C           6.0427    2.6296    0.0000 C.ar    1  UNL1        0.0744
     13 C           5.1767   -1.8704    0.0000 C.ar    1  UNL1        0.0362
     14 C           4.3107   -0.3704    0.0000 C.2     1  UNL1        0.1980
     15 C           6.0427   -0.3704    0.0000 C.2     1  UNL1       -0.0029
     16 C           5.1767    3.1296    0.0000 C.ar    1  UNL1        0.1286
     17 C           4.3107    2.6296    0.0000 C.ar    1  UNL1       -0.0159
     18 C           6.0427   -1.3704    0.0000 C.2     1  UNL1        0.1876
     19 C           6.9367    1.0950    0.0000 C.2     1  UNL1        0.1876
     20 C           3.4007   -1.8772    0.0000 C.ar    1  UNL1        0.1286
     21 C           5.1928   -2.9119    0.0000 C.ar    1  UNL1       -0.0471
     22 C           3.4446    1.1296    0.0000 C.3     1  UNL1       -0.0390
     23 C           6.9367    3.1643    0.0000 C.2     1  UNL1        0.1904
     24 C           4.2947   -3.4396    0.0000 C.ar    1  UNL1       -0.0463
     25 C           3.3926   -2.9188    0.0000 C.ar    1  UNL1       -0.0165
     26 C           7.8427    1.6088    0.0000 C.2     1  UNL1       -0.0107
     27 C           7.8427    2.6504    0.0000 C.2     1  UNL1       -0.0106
     28 C           4.2986   -4.4396    0.0000 C.3     1  UNL1       -0.0396
     29 H           6.5797   -0.0604    0.0000 H       1  UNL1        0.0663
     30 H           3.7737    2.9396    0.0000 H       1  UNL1        0.0657
     31 H           5.7332   -3.2156    0.0000 H       1  UNL1        0.0627
     32 H           3.1346    1.6666    0.0000 H       1  UNL1        0.0278
     33 H           2.9077    0.8196    0.0000 H       1  UNL1        0.0278
     34 H           3.7546    0.5927    0.0000 H       1  UNL1        0.0278
     35 H           2.8545   -3.2268    0.0000 H       1  UNL1        0.0657
     36 H           8.3785    1.2967    0.0000 H       1  UNL1        0.0657
     37 H           8.3785    2.9625    0.0000 H       1  UNL1        0.0657
     38 H           3.6786   -4.4420    0.0000 H       1  UNL1        0.0278
     39 H           4.3010   -5.0596    0.0000 H       1  UNL1        0.0278
     40 H           4.9186   -4.4372    0.0000 H       1  UNL1        0.0278
     41 H           4.6398    4.4396    0.0000 H       1  UNL1        0.2922
     42 H           2.0000   -1.6710    0.0000 H       1  UNL1        0.2922
@<TRIPOS>BOND
     1     1    16    1
     2     1    41    1
     3     2    14    2
     4     3    20    1
     5     3    42    1
     6     4    18    2
     7     5    19    2
     8     6    23    2
     9     7     8    1
    10     7     9   ar
    11     7    10   ar
    12     8    14    1
    13     8    15    2
    14     9    12   ar
    15     9    19    1
    16    10    17   ar
    17    10    22    1
    18    11    13   ar
    19    11    14    1
    20    11    20   ar
    21    12    16   ar
    22    12    23    1
    23    13    18    1
    24    13    21   ar
    25    15    18    1
    26    15    29    1
    27    16    17   ar
    28    17    30    1
    29    19    26    1
    30    20    25   ar
    31    21    24   ar
    32    21    31    1
    33    22    32    1
    34    22    33    1
    35    22    34    1
    36    23    27    1
    37    24    25   ar
    38    24    28    1
    39    25    35    1
    40    26    27    2
    41    26    36    1
    42    27    37    1
    43    28    38    1
    44    28    39    1
    45    28    40    1
