@<TRIPOS>MOLECULE
IMPHY000632
 42 46 0 0 0
SMALL
GASTEIGER

@<TRIPOS>ATOM
      1 C          19.0170   -5.2297    0.0000 C.3     1  UNL1        0.2526
      2 C          14.4909   -5.2297    0.0000 C.ar    1  UNL1        0.0064
      3 C          15.6320   -5.8762    0.0000 C.ar    1  UNL1        0.0403
      4 C          15.6320   -3.2709    0.0000 C.ar    1  UNL1        0.0482
      5 C           8.8429   -1.9587    0.0000 C.ar    1  UNL1        0.0793
      6 C           9.9649   -3.9175    0.0000 C.ar    1  UNL1        0.0748
      7 C          13.3689   -1.9587    0.0000 C.ar    1  UNL1        0.0797
      8 C           0.7607   -4.2218    0.0000 C.3     1  UNL1        0.2142
      9 C           5.2677   -7.1884    0.0000 C.3     1  UNL1        0.1771
     10 C          14.4909   -3.9175    0.0000 C.ar    1  UNL1        0.0381
     11 C           8.8429   -3.2709    0.0000 C.ar    1  UNL1        0.1476
     12 C          16.7540   -3.9175    0.0000 C.ar    1  UNL1        0.2294
     13 C           9.9649   -1.3122    0.0000 C.ar    1  UNL1        0.2047
     14 C          12.2279   -1.3122    0.0000 C.ar    1  UNL1        0.2048
     15 C          16.7540   -5.2297    0.0000 C.ar    1  UNL1        0.1774
     16 C          13.3689   -3.2709    0.0000 C.ar    1  UNL1        0.1485
     17 C          11.1059   -3.2709    0.0000 C.ar    1  UNL1        0.1544
     18 C           1.2932   -5.4008    0.0000 C.3     1  UNL1        0.1836
     19 C           6.5799   -7.1884    0.0000 C.3     1  UNL1        0.1813
     20 C          11.1059   -1.9587    0.0000 C.ar    1  UNL1        0.1125
     21 C           1.2932   -6.7130    0.0000 C.3     1  UNL1        0.2168
     22 C           7.7019   -7.8540    0.0000 C.3     1  UNL1        0.2144
     23 C           8.8429   -7.1884    0.0000 C.3     1  UNL1        0.2211
     24 C           2.5483   -7.1124    0.0000 C.3     1  UNL1        0.2404
     25 C           8.8429   -5.8762    0.0000 C.3     1  UNL1        0.2542
     26 C           3.3090   -6.0664    0.0000 C.3     1  UNL1        0.2695
     27 C           7.7019   -5.2297    0.0000 C.3     1  UNL1        0.3218
     28 O           1.5404   -3.1568    0.0000 O.3     1  UNL1       -0.2176
     29 O          17.8950   -3.2709    0.0000 O.3     1  UNL1       -0.2833
     30 O           9.9649    0.0000    0.0000 O.3     1  UNL1       -0.2862
     31 O          12.2279    0.0000    0.0000 O.2     1  UNL1       -0.2862
     32 O           0.7607   -7.9111    0.0000 O.3     1  UNL1       -0.2175
     33 O           8.3675   -8.9760    0.0000 O.3     1  UNL1       -0.2176
     34 O          10.1361   -7.1884    0.0000 O.3     1  UNL1       -0.2173
     35 O           3.5181   -7.9871    0.0000 O.3     1  UNL1       -0.2149
     36 O           9.4895   -4.7542    0.0000 O.3     1  UNL1       -0.2135
     37 O          17.8950   -5.8762    0.0000 O.3     1  UNL1       -0.4682
     38 O           4.4310   -5.4008    0.0000 O.3     1  UNL1       -0.3259
     39 O           7.0553   -4.1077    0.0000 O.3     1  UNL1       -0.4503
     40 O          12.2279   -3.9175    0.0000 O.2     1  UNL1       -0.4531
     41 O           2.5483   -5.0015    0.0000 O.3     1  UNL1       -0.3256
     42 O           6.5799   -5.8762    0.0000 O.3     1  UNL1       -0.3158
@<TRIPOS>BOND
     1     1    37    1
     2     2     3   ar
     3     2    10   ar
     4     3    15   ar
     5     4    10   ar
     6     4    12   ar
     7     5    11   ar
     8     5    13   ar
     9     6    11   ar
    10     6    17   ar
    11     7    14   ar
    12     7    16   ar
    13     8    28    1
    14     9    38    1
    15    10    16    1
    16    11    39    1
    17    12    15   ar
    18    12    29    1
    19    13    20   ar
    20    13    30    1
    21    14    20   ar
    22    14    31    2
    23    15    37    1
    24    16    40   ar
    25    17    20   ar
    26    17    40   ar
    27    18     8    1
    28    18    21    1
    29    18    41    1
    30    19     9    1
    31    19    22    1
    32    19    42    1
    33    21    24    1
    34    21    32    1
    35    22    23    1
    36    22    33    1
    37    23    25    1
    38    23    34    1
    39    24    26    1
    40    24    35    1
    41    25    27    1
    42    25    36    1
    43    26    38    1
    44    26    41    1
    45    27    39    1
    46    27    42    1
