@<TRIPOS>MOLECULE
IMPHY000505
 25 27 0 0 0
SMALL
GASTEIGER

@<TRIPOS>ATOM
      1 C        2361.5900 2489.8300    0.0000 C.3     1  UNL1        0.0405
      2 C        2326.9500 2509.7800    0.0000 C.2     1  UNL1       -0.0226
      3 C        2292.3100 2489.8300    0.0000 C.2     1  UNL1       -0.0046
      4 C        2341.6400 2455.1900    0.0000 C.3     1  UNL1        0.0089
      5 C        2381.6400 2455.1900    0.0000 C.3     1  UNL1        0.0089
      6 C        2396.2300 2509.7800    0.0000 C.ar    1  UNL1        0.0198
      7 C        2430.8700 2489.6300    0.0000 C.ar    1  UNL1       -0.0021
      8 C        2465.4100 2509.7800    0.0000 C.ar    1  UNL1        0.0121
      9 C        2465.4100 2550.0700    0.0000 C.ar    1  UNL1        0.1377
     10 C        2430.8700 2570.2200    0.0000 C.ar    1  UNL1        0.0782
     11 C        2396.2300 2550.0700    0.0000 C.ar    1  UNL1        0.1950
     12 O        2361.5900 2570.1200    0.0000 O.3     1  UNL1       -0.2868
     13 O        2499.9500 2570.2200    0.0000 O.3     1  UNL1       -0.4753
     14 C        2534.4900 2550.0700    0.0000 C.3     1  UNL1        0.2100
     15 C        2534.4900 2509.7800    0.0000 C.3     1  UNL1        0.0736
     16 C        2499.9500 2489.6300    0.0000 C.3     1  UNL1        0.0376
     17 C        2569.1300 2489.8300    0.0000 C.ar    1  UNL1        0.0206
     18 C        2603.7700 2509.7800    0.0000 C.ar    1  UNL1        0.1949
     19 O        2603.7700 2549.7800    0.0000 O.3     1  UNL1       -0.2868
     20 C        2638.4100 2489.8300    0.0000 C.ar    1  UNL1        0.0785
     21 C        2638.4100 2449.8300    0.0000 C.ar    1  UNL1        0.1419
     22 C        2603.7700 2429.7800    0.0000 C.ar    1  UNL1        0.0368
     23 C        2569.1300 2449.8300    0.0000 C.ar    1  UNL1        0.0021
     24 O        2673.0500 2429.7800    0.0000 O.3     1  UNL1       -0.4713
     25 C        2707.6900 2449.8300    0.0000 C.3     1  UNL1        0.2525
@<TRIPOS>BOND
     1     1     2    1
     2     1     4    1
     3     1     5    1
     4     1     6    1
     5     2     3    2
     6     6     7   ar
     7     6    11   ar
     8     7     8   ar
     9     8     9   ar
    10     8    16    1
    11     9    13    1
    12    10     9   ar
    13    11    10   ar
    14    11    12    1
    15    13    14    1
    16    15    14    1
    17    15    17    1
    18    16    15    1
    19    17    18   ar
    20    17    23   ar
    21    18    19    1
    22    18    20   ar
    23    20    21   ar
    24    21    24    1
    25    22    21   ar
    26    23    22   ar
    27    24    25    1
