@<TRIPOS>MOLECULE
IMPHY010699
 13 12 0 0 0
SMALL
GASTEIGER

@<TRIPOS>ATOM
      1 C           3.3251   -3.4527    0.0000 C.3     1  UNL1        0.0036
      2 C           1.9935   -3.4527    0.0000 C.3     1  UNL1        0.0206
      3 C           3.9869   -2.2965    0.0000 C.3     1  UNL1        0.0278
      4 C           1.3316   -4.6009    0.0000 C.3     1  UNL1        0.1093
      5 C           7.3120   -1.1482    0.0000 C.2     1  UNL1        0.3327
      6 C           5.3185   -2.2965    0.0000 C.3     1  UNL1        0.1436
      7 C           5.9804   -3.4527    0.0000 C.2     1  UNL1        0.2898
      8 N           0.0000   -4.6009    0.0000 N.3     1  UNL1       -0.1314
      9 N           7.3120   -3.4527    0.0000 N.2     1  UNL1       -0.1055
     10 N           5.9804   -1.1482    0.0000 N.2     1  UNL1       -0.2286
     11 O           7.9738    0.0000    0.0000 O.2     1  UNL1       -0.2602
     12 O           5.3185   -4.6009    0.0000 O.2     1  UNL1       -0.2669
     13 H           4.6487   -3.4527    0.0000 H       1  UNL1        0.0652
@<TRIPOS>BOND
     1     1     2    1
     2     1     3    1
     3     2     4    1
     4     3     6    1
     5     4     8    1
     6     5    10    2
     7     5    11    1
     8     6     7    1
     9     6    10    1
    10     6    13    1
    11     7     9    2
    12     7    12    1
