@<TRIPOS>MOLECULE
IMPHY014038
 19 18 0 0 0
SMALL
GASTEIGER

@<TRIPOS>ATOM
      1 O           2.0000    0.7500    0.0000 O.co2   1  UNL1       -0.5498
      2 O           2.8660   -0.7500    0.0000 O.co2   1  UNL1       -0.5498
      3 C           5.4641    0.7500    0.0000 C.3     1  UNL1       -0.0530
      4 C           4.5981    0.2500    0.0000 C.3     1  UNL1       -0.0480
      5 C           6.3301    0.2500    0.0000 C.3     1  UNL1       -0.0559
      6 C           3.7320    0.7500    0.0000 C.3     1  UNL1       -0.0132
      7 C           7.1962    0.7500    0.0000 C.3     1  UNL1       -0.0653
      8 C           2.8660    0.2500    0.0000 C.2     1  UNL1        0.0417
      9 H           5.8626    1.2250    0.0000 H       1  UNL1        0.0265
     10 H           5.0656    1.2250    0.0000 H       1  UNL1        0.0265
     11 H           4.1996   -0.2249    0.0000 H       1  UNL1        0.0269
     12 H           4.9966   -0.2249    0.0000 H       1  UNL1        0.0269
     13 H           5.9316   -0.2249    0.0000 H       1  UNL1        0.0263
     14 H           6.7287   -0.2249    0.0000 H       1  UNL1        0.0263
     15 H           4.1306    1.2250    0.0000 H       1  UNL1        0.0325
     16 H           3.3335    1.2250    0.0000 H       1  UNL1        0.0325
     17 H           7.5062    0.2131    0.0000 H       1  UNL1        0.0230
     18 H           7.7331    1.0600    0.0000 H       1  UNL1        0.0230
     19 H           6.8862    1.2869    0.0000 H       1  UNL1        0.0230
@<TRIPOS>UNITY_ATOM_ATTR
1 1
charge -1
@<TRIPOS>BOND
     1     1     8   ar
     2     2     8   ar
     3     3     4    1
     4     3     5    1
     5     3     9    1
     6     3    10    1
     7     4     6    1
     8     4    11    1
     9     4    12    1
    10     5     7    1
    11     5    13    1
    12     5    14    1
    13     6     8    1
    14     6    15    1
    15     6    16    1
    16     7    17    1
    17     7    18    1
    18     7    19    1
