@<TRIPOS>MOLECULE
IMPHY000469
 55 61 0 0 0
SMALL
GASTEIGER

@<TRIPOS>ATOM
      1 C        2264.8100 2369.5800    0.0000 C.2     1  UNL1        0.3638
      2 O        2230.1700 2349.6300    0.0000 O.co2   1  UNL1       -0.2457
      3 O        2299.4500 2349.6300    0.0000 O.co2   1  UNL1       -0.2457
      4 C        2275.1400 2408.2900    0.0000 C.3     1  UNL1        0.0941
      5 C        2275.1400 2448.5900    0.0000 C.3     1  UNL1        0.0139
      6 C        2309.6800 2468.7300    0.0000 C.3     1  UNL1        0.0008
      7 C        2344.3200 2448.5900    0.0000 C.3     1  UNL1        0.0000
      8 C        2344.3200 2408.2900    0.0000 C.3     1  UNL1        0.0005
      9 C        2309.6800 2388.1400    0.0000 C.3     1  UNL1        0.0107
     10 C        2344.3200 2488.5900    0.0000 C.3     1  UNL1        0.0000
     11 C        2378.8600 2468.7300    0.0000 C.3     1  UNL1        0.0000
     12 C        2378.8600 2428.7300    0.0000 C.3     1  UNL1        0.0000
     13 C        2378.8600 2509.0300    0.0000 C.3     1  UNL1        0.0000
     14 C        2344.3200 2529.1800    0.0000 C.3     1  UNL1        0.0000
     15 C        2309.6800 2509.0300    0.0000 C.3     1  UNL1        0.0000
     16 C        2413.7000 2529.1800    0.0000 C.3     1  UNL1        0.0002
     17 C        2413.7000 2489.1800    0.0000 C.3     1  UNL1        0.0000
     18 C        2448.5400 2509.5300    0.0000 C.3     1  UNL1        0.0023
     19 C        2448.5400 2469.5300    0.0000 C.3     1  UNL1        0.0001
     20 C        2413.7000 2449.1800    0.0000 C.3     1  UNL1        0.0000
     21 C        2482.7800 2530.0700    0.0000 C.3     1  UNL1        0.0251
     22 C        2497.0700 2492.7500    0.0000 C.3     1  UNL1        0.0024
     23 C        2521.9900 2537.7200    0.0000 C.3     1  UNL1        0.0024
     24 C        2482.2800 2570.3700    0.0000 C.3     1  UNL1        0.1177
     25 C        2447.4400 2590.1200    0.0000 C.3     1  UNL1        0.0296
     26 C        2413.1000 2569.4800    0.0000 C.3     1  UNL1        0.0025
     27 O        2516.9200 2590.4200    0.0000 O.3     1  UNL1       -0.3311
     28 C        2551.5600 2570.3700    0.0000 C.3     1  UNL1        0.2694
     29 O        2551.5600 2530.3700    0.0000 O.3     1  UNL1       -0.3257
     30 C        2586.1000 2510.4200    0.0000 C.3     1  UNL1        0.1803
     31 C        2586.1000 2470.4200    0.0000 C.3     1  UNL1        0.2141
     32 O        2620.7400 2450.3700    0.0000 O.3     1  UNL1       -0.2176
     33 C        2620.8400 2530.3700    0.0000 C.3     1  UNL1        0.1804
     34 C        2620.8400 2570.3700    0.0000 C.3     1  UNL1        0.2167
     35 C        2586.1000 2590.4200    0.0000 C.3     1  UNL1        0.2404
     36 O        2586.1000 2630.4200    0.0000 O.3     1  UNL1       -0.2149
     37 O        2655.4800 2590.4200    0.0000 O.3     1  UNL1       -0.2175
     38 O        2655.4800 2510.4200    0.0000 O.3     1  UNL1       -0.3257
     39 C        2690.1200 2530.3700    0.0000 C.3     1  UNL1        0.2695
     40 O        2690.1200 2570.3700    0.0000 O.3     1  UNL1       -0.3256
     41 C        2724.6700 2590.4200    0.0000 C.3     1  UNL1        0.1835
     42 C        2724.6700 2630.4200    0.0000 C.3     1  UNL1        0.2142
     43 O        2759.4000 2650.3700    0.0000 O.3     1  UNL1       -0.2176
     44 C        2759.4000 2570.3700    0.0000 C.3     1  UNL1        0.2144
     45 C        2759.4000 2530.3700    0.0000 C.3     1  UNL1        0.2198
     46 C        2724.6700 2510.4200    0.0000 C.3     1  UNL1        0.2406
     47 O        2724.6700 2470.4200    0.0000 O.3     1  UNL1       -0.2149
     48 O        2794.0400 2510.4200    0.0000 O.3     1  UNL1       -0.2174
     49 O        2794.0400 2590.4200    0.0000 O.3     1  UNL1       -0.2176
     50 C        2240.6000 2468.7300    0.0000 C.3     1  UNL1        0.0188
     51 C        2206.0500 2448.5900    0.0000 C.3     1  UNL1        0.0046
     52 C        2206.0500 2408.2900    0.0000 C.3     1  UNL1        0.0110
     53 C        2240.6000 2508.7300    0.0000 C.2     1  UNL1       -0.0442
     54 C        2205.9600 2528.6800    0.0000 C.3     1  UNL1        0.0263
     55 C        2275.2400 2528.6800    0.0000 C.2     1  UNL1       -0.0091
@<TRIPOS>BOND
     1     1     2   ar
     2     1     3   ar
     3     4     1    1
     4     4     9    1
     5     4    52    1
     6     5     4    1
     7     5     6    1
     8     5    50    1
     9     6     7    1
    10     6    15    1
    11     7    10    1
    12     7    11    1
    13     8     7    1
    14     9     8    1
    15    11    12    1
    16    11    13    1
    17    11    20    1
    18    13    16    1
    19    13    14    1
    20    15    14    1
    21    16    17    1
    22    16    18    1
    23    16    26    1
    24    18    21    1
    25    18    19    1
    26    20    19    1
    27    21    22    1
    28    21    23    1
    29    21    24    1
    30    24    27    1
    31    25    24    1
    32    26    25    1
    33    28    27    1
    34    28    29    1
    35    28    35    1
    36    29    30    1
    37    30    31    1
    38    30    33    1
    39    31    32    1
    40    33    38    1
    41    34    33    1
    42    34    37    1
    43    35    34    1
    44    35    36    1
    45    39    38    1
    46    39    40    1
    47    39    46    1
    48    40    41    1
    49    41    42    1
    50    41    44    1
    51    42    43    1
    52    44    49    1
    53    45    44    1
    54    45    48    1
    55    46    45    1
    56    46    47    1
    57    50    51    1
    58    50    53    1
    59    52    51    1
    60    53    54    1
    61    53    55    2
