@<TRIPOS>MOLECULE
IMPHY013695
 72 74 0 0 0
SMALL
GASTEIGER

@<TRIPOS>ATOM
      1 O           6.8671    1.7500    0.0000 O.3     1  UNL1       -0.3399
      2 O           5.1350    1.7500    0.0000 O.3     1  UNL1       -0.3395
      3 O           5.1350    4.7500    0.0000 O.3     1  UNL1       -0.3770
      4 O           6.8671    5.7500    0.0000 O.3     1  UNL1       -0.3743
      5 O           6.8671   -0.2500    0.0000 O.3     1  UNL1       -0.4504
      6 O           8.5991    4.7500    0.0000 O.3     1  UNL1       -0.3847
      7 O           5.1350   -1.2500    0.0000 O.3     1  UNL1       -0.3853
      8 O           3.4030   -0.2500    0.0000 O.3     1  UNL1       -0.3864
      9 O           2.5369    1.2500    0.0000 O.3     1  UNL1       -0.3924
     10 O           6.0010   -1.7500    0.0000 O.2     1  UNL1       -0.2456
     11 O           9.4651   -5.7500    0.0000 O.3     1  UNL1       -0.4914
     12 O          11.1972   -4.7500    0.0000 O.3     1  UNL1       -0.5033
     13 N          10.3312    3.7500    0.0000 N.1     1  UNL1       -0.1915
     14 C           6.8671    2.7500    0.0000 C.3     1  UNL1        0.0886
     15 C           6.0010    3.2500    0.0000 C.3     1  UNL1        0.0064
     16 C           6.0010    4.2500    0.0000 C.3     1  UNL1        0.0898
     17 C           6.8671    4.7500    0.0000 C.3     1  UNL1        0.1141
     18 C           6.0010    1.2500    0.0000 C.3     1  UNL1        0.1998
     19 C           6.0010    0.2500    0.0000 C.3     1  UNL1        0.1819
     20 C           7.7331    4.2500    0.0000 C.3     1  UNL1        0.1080
     21 C           5.1350   -0.2500    0.0000 C.3     1  UNL1        0.1251
     22 C           7.7331    3.2500    0.0000 C.2     1  UNL1       -0.0002
     23 C           4.2690    0.2500    0.0000 C.3     1  UNL1        0.1130
     24 C           4.2690    1.2500    0.0000 C.3     1  UNL1        0.1131
     25 C           3.4030    1.7500    0.0000 C.3     1  UNL1        0.0730
     26 C           8.5991    2.7500    0.0000 C.2     1  UNL1        0.0196
     27 C           4.2690    4.2500    0.0000 C.3     1  UNL1        0.0369
     28 C           6.0010    6.2500    0.0000 C.3     1  UNL1        0.0370
     29 C           6.8671   -1.2500    0.0000 C.2     1  UNL1        0.3324
     30 C           9.4651    3.2500    0.0000 C.1     1  UNL1        0.0915
     31 C           7.7331   -1.7500    0.0000 C.2     1  UNL1        0.0231
     32 C           7.7331   -2.7500    0.0000 C.2     1  UNL1       -0.0477
     33 C           8.5991   -3.2500    0.0000 C.ar    1  UNL1       -0.0211
     34 C           8.5991   -4.2500    0.0000 C.ar    1  UNL1       -0.0092
     35 C           9.4651   -2.7500    0.0000 C.ar    1  UNL1       -0.0509
     36 C           9.4651   -4.7500    0.0000 C.ar    1  UNL1        0.1618
     37 C          10.3312   -3.2500    0.0000 C.ar    1  UNL1       -0.0160
     38 C          10.3312   -4.2500    0.0000 C.ar    1  UNL1        0.1585
     39 C           8.5991   -6.2500    0.0000 C.3     1  UNL1        0.0790
     40 H           7.4040    2.4400    0.0000 H       1  UNL1        0.0646
     41 H           5.3905    3.3577    0.0000 H       1  UNL1        0.0319
     42 H           5.7890    2.6674    0.0000 H       1  UNL1        0.0319
     43 H           6.0010    4.8700    0.0000 H       1  UNL1        0.0623
     44 H           7.4040    5.0600    0.0000 H       1  UNL1        0.0651
     45 H           6.0010    1.8700    0.0000 H       1  UNL1        0.0949
     46 H           6.0010   -0.3700    0.0000 H       1  UNL1        0.0813
     47 H           8.2700    3.9400    0.0000 H       1  UNL1        0.0668
     48 H           4.5981   -0.5600    0.0000 H       1  UNL1        0.0659
     49 H           4.2690   -0.3700    0.0000 H       1  UNL1        0.0647
     50 H           4.2690    1.8700    0.0000 H       1  UNL1        0.0647
     51 H           3.8015    2.2250    0.0000 H       1  UNL1        0.0584
     52 H           3.0044    2.2250    0.0000 H       1  UNL1        0.0584
     53 H           8.5991    2.1300    0.0000 H       1  UNL1        0.0734
     54 H           8.5991    5.3700    0.0000 H       1  UNL1        0.2103
     55 H           4.5981   -1.5600    0.0000 H       1  UNL1        0.2101
     56 H           3.4030   -0.8700    0.0000 H       1  UNL1        0.2100
     57 H           3.9590    4.7869    0.0000 H       1  UNL1        0.0524
     58 H           3.7320    3.9400    0.0000 H       1  UNL1        0.0524
     59 H           4.5790    3.7131    0.0000 H       1  UNL1        0.0524
     60 H           6.3110    6.7869    0.0000 H       1  UNL1        0.0524
     61 H           5.4641    6.5600    0.0000 H       1  UNL1        0.0524
     62 H           5.6910    5.7131    0.0000 H       1  UNL1        0.0524
     63 H           2.0000    1.5600    0.0000 H       1  UNL1        0.2095
     64 H           8.2700   -1.4400    0.0000 H       1  UNL1        0.0689
     65 H           7.1962   -3.0600    0.0000 H       1  UNL1        0.0626
     66 H           8.0622   -4.5600    0.0000 H       1  UNL1        0.0661
     67 H           9.4651   -2.1300    0.0000 H       1  UNL1        0.0625
     68 H          10.8681   -2.9400    0.0000 H       1  UNL1        0.0655
     69 H          11.7341   -4.4400    0.0000 H       1  UNL1        0.2923
     70 H           8.2891   -5.7131    0.0000 H       1  UNL1        0.0660
     71 H           8.0622   -6.5600    0.0000 H       1  UNL1        0.0660
     72 H           8.9091   -6.7869    0.0000 H       1  UNL1        0.0660
@<TRIPOS>BOND
     1     1    14    1
     2     1    18    1
     3     2    18    1
     4     2    24    1
     5     3    16    1
     6     3    27    1
     7     4    17    1
     8     4    28    1
     9     5    19    1
    10     5    29    1
    11     6    20    1
    12     6    54    1
    13     7    21    1
    14     7    55    1
    15     8    23    1
    16     8    56    1
    17     9    25    1
    18     9    63    1
    19    10    29    2
    20    11    36    1
    21    11    39    1
    22    12    38    1
    23    12    69    1
    24    13    30    3
    25    14    15    1
    26    14    22    1
    27    14    40    1
    28    15    16    1
    29    15    41    1
    30    15    42    1
    31    16    17    1
    32    16    43    1
    33    17    20    1
    34    17    44    1
    35    18    19    1
    36    18    45    1
    37    19    21    1
    38    19    46    1
    39    20    22    1
    40    20    47    1
    41    21    23    1
    42    21    48    1
    43    22    26    2
    44    23    24    1
    45    23    49    1
    46    24    25    1
    47    24    50    1
    48    25    51    1
    49    25    52    1
    50    26    30    1
    51    26    53    1
    52    27    57    1
    53    27    58    1
    54    27    59    1
    55    28    60    1
    56    28    61    1
    57    28    62    1
    58    29    31    1
    59    31    32    2
    60    31    64    1
    61    32    33    1
    62    32    65    1
    63    33    34   ar
    64    33    35   ar
    65    34    36   ar
    66    34    66    1
    67    35    37   ar
    68    35    67    1
    69    36    38   ar
    70    37    38   ar
    71    37    68    1
    72    39    70    1
    73    39    71    1
    74    39    72    1
