@<TRIPOS>MOLECULE
IMPHY016193
 34 35 0 0 0
SMALL
GASTEIGER

@<TRIPOS>ATOM
      1 C           3.7320   -0.5173    0.0000 C.3     1  UNL1       -0.0354
      2 C           3.7320    0.4827    0.0000 C.3     1  UNL1       -0.0354
      3 C           2.8660   -1.0173    0.0000 C.3     1  UNL1       -0.0408
      4 C           4.6260    1.0174    0.0000 C.3     1  UNL1       -0.0408
      5 C           4.6260   -1.0520    0.0000 C.3     1  UNL1       -0.0497
      6 C           2.8660    0.9827    0.0000 C.3     1  UNL1       -0.0497
      7 C           2.0000   -0.5173    0.0000 C.3     1  UNL1       -0.0502
      8 C           5.5321    0.5035    0.0000 C.3     1  UNL1       -0.0502
      9 C           5.5321   -0.5381    0.0000 C.3     1  UNL1       -0.0525
     10 C           2.0000    0.4827    0.0000 C.3     1  UNL1       -0.0525
     11 C           2.8660   -2.0173    0.0000 C.3     1  UNL1       -0.0622
     12 C           4.6144    2.0173    0.0000 C.3     1  UNL1       -0.0622
     13 H           4.2714   -0.2114    0.0000 H       1  UNL1        0.0306
     14 H           3.7273    1.1027    0.0000 H       1  UNL1        0.0306
     15 H           3.4030   -1.3273    0.0000 H       1  UNL1        0.0301
     16 H           4.0849    1.3201    0.0000 H       1  UNL1        0.0301
     17 H           4.2214   -1.5218    0.0000 H       1  UNL1        0.0268
     18 H           5.0196   -1.5310    0.0000 H       1  UNL1        0.0268
     19 H           3.2646    1.4576    0.0000 H       1  UNL1        0.0268
     20 H           2.4675    1.4576    0.0000 H       1  UNL1        0.0268
     21 H           1.3894   -0.4096    0.0000 H       1  UNL1        0.0268
     22 H           1.7880   -1.0999    0.0000 H       1  UNL1        0.0268
     23 H           6.1429    0.3974    0.0000 H       1  UNL1        0.0268
     24 H           5.7411    1.0872    0.0000 H       1  UNL1        0.0268
     25 H           5.7411   -1.1218    0.0000 H       1  UNL1        0.0265
     26 H           6.1429   -0.4320    0.0000 H       1  UNL1        0.0265
     27 H           1.7880    1.0653    0.0000 H       1  UNL1        0.0265
     28 H           1.3894    0.3750    0.0000 H       1  UNL1        0.0265
     29 H           2.2460   -2.0173    0.0000 H       1  UNL1        0.0233
     30 H           2.8660   -2.6373    0.0000 H       1  UNL1        0.0233
     31 H           3.4860   -2.0173    0.0000 H       1  UNL1        0.0233
     32 H           5.2344    2.0245    0.0000 H       1  UNL1        0.0233
     33 H           4.6073    2.6373    0.0000 H       1  UNL1        0.0233
     34 H           3.9945    2.0101    0.0000 H       1  UNL1        0.0233
@<TRIPOS>BOND
     1     1     2    1
     2     1     3    1
     3     1     5    1
     4     1    13    1
     5     2     4    1
     6     2     6    1
     7     2    14    1
     8     3     7    1
     9     3    11    1
    10     3    15    1
    11     4     8    1
    12     4    12    1
    13     4    16    1
    14     5     9    1
    15     5    17    1
    16     5    18    1
    17     6    10    1
    18     6    19    1
    19     6    20    1
    20     7    10    1
    21     7    21    1
    22     7    22    1
    23     8     9    1
    24     8    23    1
    25     8    24    1
    26     9    25    1
    27     9    26    1
    28    10    27    1
    29    10    28    1
    30    11    29    1
    31    11    30    1
    32    11    31    1
    33    12    32    1
    34    12    33    1
    35    12    34    1
