@<TRIPOS>MOLECULE
IMPHY009052
 157 165 0 0 0
SMALL
GASTEIGER

@<TRIPOS>ATOM
      1 O          10.6948    4.1557    0.0000 O.3     1  UNL1       -0.3448
      2 O           9.1658    5.3876    0.0000 O.3     1  UNL1       -0.3515
      3 O           9.2718   -4.0884    0.0000 O.3     1  UNL1       -0.3451
      4 O           7.5397   -4.0884    0.0000 O.3     1  UNL1       -0.3405
      5 O          13.3294    7.2550    0.0000 O.3     1  UNL1       -0.3484
      6 O           9.2718   -6.0884    0.0000 O.3     1  UNL1       -0.3841
      7 O           7.5397   -7.0884    0.0000 O.3     1  UNL1       -0.3400
      8 O           5.8076   -6.0884    0.0000 O.3     1  UNL1       -0.3401
      9 O          14.8268    8.1255    0.0000 O.3     1  UNL1       -0.3405
     10 O           5.8076   -3.0884    0.0000 O.3     1  UNL1       -0.3924
     11 O          14.3345    5.5260    0.0000 O.3     1  UNL1       -0.3841
     12 O           9.2718   -7.0884    0.0000 O.3     1  UNL1       -0.3431
     13 O           4.8371   -4.5939    0.0000 O.3     1  UNL1       -0.3405
     14 O          16.3345    5.5319    0.0000 O.3     1  UNL1       -0.3864
     15 O          17.3293    7.2670    0.0000 O.3     1  UNL1       -0.3865
     16 O           7.5397   -9.0884    0.0000 O.3     1  UNL1       -0.3841
     17 O           3.8202   -6.9733    0.0000 O.3     1  UNL1       -0.3841
     18 O           9.2718  -10.0884    0.0000 O.3     1  UNL1       -0.3864
     19 O           2.3644   -5.3565    0.0000 O.3     1  UNL1       -0.3864
     20 O          15.8216    9.8605    0.0000 O.3     1  UNL1       -0.3924
     21 O          11.0038   -9.0884    0.0000 O.3     1  UNL1       -0.3866
     22 O           2.4577   -3.3679    0.0000 O.3     1  UNL1       -0.3924
     23 C           9.3010    2.1085    0.0000 C.3     1  UNL1       -0.0233
     24 C          10.1690    1.6118    0.0000 C.3     1  UNL1       -0.0295
     25 C           9.5065    3.0811    0.0000 C.3     1  UNL1       -0.0015
     26 C          10.1728    0.6118    0.0000 C.3     1  UNL1       -0.0306
     27 C          10.4948    3.1880    0.0000 C.3     1  UNL1        0.0660
     28 C           9.3087    0.1085    0.0000 C.3     1  UNL1       -0.0285
     29 C          10.9034    2.2817    0.0000 C.3     1  UNL1       -0.0226
     30 C           8.4369    1.6051    0.0000 C.3     1  UNL1       -0.0467
     31 C           9.1042    3.9837    0.0000 C.3     1  UNL1        0.0160
     32 C           8.4408    0.6051    0.0000 C.3     1  UNL1       -0.0486
     33 C           9.2967   -0.9331    0.0000 C.3     1  UNL1       -0.0078
     34 C           9.8371    4.6465    0.0000 C.3     1  UNL1        0.1728
     35 C           8.4331    2.6051    0.0000 C.3     1  UNL1       -0.0590
     36 C          11.0848    0.1085    0.0000 C.3     1  UNL1       -0.0311
     37 C          10.1967   -1.4574    0.0000 C.2     1  UNL1       -0.0648
     38 C           8.3468   -1.4574    0.0000 C.3     1  UNL1       -0.0413
     39 C          11.0968   -0.9331    0.0000 C.2     1  UNL1       -0.0839
     40 C           8.1258    4.1904    0.0000 C.3     1  UNL1       -0.0572
     41 C           8.4326   -0.4297    0.0000 C.3     1  UNL1       -0.0556
     42 C          10.3346    5.5140    0.0000 C.3     1  UNL1        0.0020
     43 C          10.2093   -2.5423    0.0000 C.3     1  UNL1       -0.0047
     44 C           8.3342   -2.5423    0.0000 C.3     1  UNL1       -0.0254
     45 C           9.2718   -3.0884    0.0000 C.3     1  UNL1        0.0655
     46 C          11.3345    5.5170    0.0000 C.3     1  UNL1       -0.0435
     47 C           9.4720    6.3396    0.0000 C.3     1  UNL1        0.0397
     48 C          11.8320    6.3845    0.0000 C.3     1  UNL1       -0.0201
     49 C           8.4057   -4.5884    0.0000 C.3     1  UNL1        0.1882
     50 C          12.8320    6.3875    0.0000 C.3     1  UNL1        0.0533
     51 C          11.3294    7.2490    0.0000 C.3     1  UNL1       -0.0603
     52 C           8.4057   -5.5884    0.0000 C.3     1  UNL1        0.1345
     53 C           7.5397   -6.0884    0.0000 C.3     1  UNL1        0.1209
     54 C           6.6737   -4.5884    0.0000 C.3     1  UNL1        0.1134
     55 C           6.6737   -5.5884    0.0000 C.3     1  UNL1        0.1188
     56 C          14.3294    7.2580    0.0000 C.3     1  UNL1        0.1879
     57 C           5.8076   -4.0884    0.0000 C.3     1  UNL1        0.0730
     58 C          14.8319    6.3935    0.0000 C.3     1  UNL1        0.1341
     59 C           8.4057   -7.5884    0.0000 C.3     1  UNL1        0.1883
     60 C           4.9416   -5.5884    0.0000 C.3     1  UNL1        0.1884
     61 C          15.8319    6.3965    0.0000 C.3     1  UNL1        0.1141
     62 C          15.8268    8.1285    0.0000 C.3     1  UNL1        0.1130
     63 C          16.3293    7.2640    0.0000 C.3     1  UNL1        0.1119
     64 C           8.4057   -8.5884    0.0000 C.3     1  UNL1        0.1341
     65 C           4.0281   -5.9951    0.0000 C.3     1  UNL1        0.1341
     66 C           9.2718   -9.0884    0.0000 C.3     1  UNL1        0.1140
     67 C           3.3590   -5.2520    0.0000 C.3     1  UNL1        0.1141
     68 C           3.8590   -4.3860    0.0000 C.3     1  UNL1        0.1131
     69 C          16.3242    8.9960    0.0000 C.3     1  UNL1        0.0730
     70 C          10.1378   -7.5884    0.0000 C.3     1  UNL1        0.0873
     71 C          10.1378   -8.5884    0.0000 C.3     1  UNL1        0.1095
     72 C           3.4522   -3.4724    0.0000 C.3     1  UNL1        0.0730
     73 C          11.0038   -7.0884    0.0000 C.3     1  UNL1       -0.0361
     74 H          10.9472    1.2701    0.0000 H       1  UNL1        0.0310
     75 H           8.6612    2.9915    0.0000 H       1  UNL1        0.0335
     76 H          10.9040    1.0453    0.0000 H       1  UNL1        0.0310
     77 H          11.3397    3.2812    0.0000 H       1  UNL1        0.0600
     78 H          10.0432   -0.3193    0.0000 H       1  UNL1        0.0312
     79 H          11.2708    1.7823    0.0000 H       1  UNL1        0.0293
     80 H          11.4387    2.5946    0.0000 H       1  UNL1        0.0293
     81 H           8.2226    2.1869    0.0000 H       1  UNL1        0.0271
     82 H           7.8268    1.4951    0.0000 H       1  UNL1        0.0271
     83 H           8.7144    3.5015    0.0000 H       1  UNL1        0.0354
     84 H           7.8298    0.7105    0.0000 H       1  UNL1        0.0268
     85 H           8.2310    0.0217    0.0000 H       1  UNL1        0.0268
     86 H           8.7410    3.1433    0.0000 H       1  UNL1        0.0235
     87 H           7.8949    2.9131    0.0000 H       1  UNL1        0.0235
     88 H           8.1251    2.0670    0.0000 H       1  UNL1        0.0235
     89 H          11.6968    0.0095    0.0000 H       1  UNL1        0.0310
     90 H          11.2871    0.6946    0.0000 H       1  UNL1        0.0310
     91 H           8.1445   -0.8713    0.0000 H       1  UNL1        0.0274
     92 H           7.7347   -1.5564    0.0000 H       1  UNL1        0.0274
     93 H          11.6361   -1.2389    0.0000 H       1  UNL1        0.0572
     94 H           8.2539    4.7970    0.0000 H       1  UNL1        0.0234
     95 H           7.5192    4.3185    0.0000 H       1  UNL1        0.0234
     96 H           7.9976    3.5838    0.0000 H       1  UNL1        0.0234
     97 H           8.7446    0.1060    0.0000 H       1  UNL1        0.0238
     98 H           7.8968   -0.1177    0.0000 H       1  UNL1        0.0238
     99 H           8.1205   -0.9655    0.0000 H       1  UNL1        0.0238
    100 H          10.4404    6.1249    0.0000 H       1  UNL1        0.0317
    101 H           9.7513    5.7243    0.0000 H       1  UNL1        0.0317
    102 H          10.4251   -3.1235    0.0000 H       1  UNL1        0.0335
    103 H          10.8189   -2.4291    0.0000 H       1  UNL1        0.0335
    104 H           7.7246   -2.4291    0.0000 H       1  UNL1        0.0290
    105 H           8.1184   -3.1235    0.0000 H       1  UNL1        0.0290
    106 H           9.8093   -3.3974    0.0000 H       1  UNL1        0.0600
    107 H          11.2287    4.9061    0.0000 H       1  UNL1        0.0270
    108 H          11.9178    5.3067    0.0000 H       1  UNL1        0.0270
    109 H          10.0622    6.1498    0.0000 H       1  UNL1        0.0525
    110 H           9.6618    6.9298    0.0000 H       1  UNL1        0.0525
    111 H           8.8817    6.5294    0.0000 H       1  UNL1        0.0525
    112 H          11.2120    6.3826    0.0000 H       1  UNL1        0.0320
    113 H           8.4057   -3.9684    0.0000 H       1  UNL1        0.0937
    114 H          12.7261    5.7766    0.0000 H       1  UNL1        0.0563
    115 H          13.4152    6.1772    0.0000 H       1  UNL1        0.0563
    116 H          11.8654    7.5606    0.0000 H       1  UNL1        0.0233
    117 H          11.0178    7.7850    0.0000 H       1  UNL1        0.0233
    118 H          10.7934    6.9374    0.0000 H       1  UNL1        0.0233
    119 H           8.4057   -6.2084    0.0000 H       1  UNL1        0.0671
    120 H           7.0028   -6.3984    0.0000 H       1  UNL1        0.0651
    121 H           6.6737   -3.9684    0.0000 H       1  UNL1        0.0647
    122 H           6.1367   -5.2784    0.0000 H       1  UNL1        0.0651
    123 H           9.8087   -5.7784    0.0000 H       1  UNL1        0.2101
    124 H          14.0178    7.7940    0.0000 H       1  UNL1        0.0937
    125 H           5.1971   -3.9807    0.0000 H       1  UNL1        0.0584
    126 H           5.5956   -4.6710    0.0000 H       1  UNL1        0.0584
    127 H          14.2119    6.3916    0.0000 H       1  UNL1        0.0671
    128 H           8.4057   -6.9684    0.0000 H       1  UNL1        0.0938
    129 H           4.9092   -6.2076    0.0000 H       1  UNL1        0.0938
    130 H          15.5235    5.8586    0.0000 H       1  UNL1        0.0648
    131 H          15.5152    8.6645    0.0000 H       1  UNL1        0.0647
    132 H          16.6410    6.7280    0.0000 H       1  UNL1        0.0647
    133 H           5.2707   -2.7784    0.0000 H       1  UNL1        0.2095
    134 H           8.4057   -9.2084    0.0000 H       1  UNL1        0.0671
    135 H           4.5099   -6.3853    0.0000 H       1  UNL1        0.0671
    136 H          14.6461    4.9899    0.0000 H       1  UNL1        0.2101
    137 H           9.8087   -9.3984    0.0000 H       1  UNL1        0.0648
    138 H           3.1368   -5.8308    0.0000 H       1  UNL1        0.0648
    139 H           4.2491   -3.9041    0.0000 H       1  UNL1        0.0647
    140 H          16.8003    8.5989    0.0000 H       1  UNL1        0.0584
    141 H          16.7979    9.3960    0.0000 H       1  UNL1        0.0584
    142 H          10.1378   -6.9684    0.0000 H       1  UNL1        0.0621
    143 H          10.6747   -8.2784    0.0000 H       1  UNL1        0.0646
    144 H          16.9545    5.5338    0.0000 H       1  UNL1        0.2100
    145 H          17.6377    7.8048    0.0000 H       1  UNL1        0.2100
    146 H           7.5397   -9.7084    0.0000 H       1  UNL1        0.2101
    147 H           4.2809   -7.3882    0.0000 H       1  UNL1        0.2101
    148 H           4.0538   -3.3224    0.0000 H       1  UNL1        0.0584
    149 H           3.4090   -2.8539    0.0000 H       1  UNL1        0.0584
    150 H          11.3138   -7.6253    0.0000 H       1  UNL1        0.0255
    151 H          11.5407   -6.7784    0.0000 H       1  UNL1        0.0255
    152 H          10.6938   -6.5515    0.0000 H       1  UNL1        0.0255
    153 H           9.8087  -10.3984    0.0000 H       1  UNL1        0.2100
    154 H           2.0000   -4.8549    0.0000 H       1  UNL1        0.2100
    155 H          16.1300   10.3984    0.0000 H       1  UNL1        0.2095
    156 H          11.5407   -8.7784    0.0000 H       1  UNL1        0.2100
    157 H           2.2055   -2.8015    0.0000 H       1  UNL1        0.2095
@<TRIPOS>BOND
     1     1    27    1
     2     1    34    1
     3    34     2    1
     4     2    47    1
     5    45     3    1
     6    49     3    1
     7     4    49    1
     8     4    54    1
     9     5    50    1
    10    56     5    1
    11    52     6    1
    12     6   123    1
    13    53     7    1
    14     7    59    1
    15    55     8    1
    16    60     8    1
    17     9    56    1
    18     9    62    1
    19    10    57    1
    20    10   133    1
    21    58    11    1
    22    11   136    1
    23    12    59    1
    24    12    70    1
    25    13    60    1
    26    13    68    1
    27    61    14    1
    28    14   144    1
    29    63    15    1
    30    15   145    1
    31    64    16    1
    32    16   146    1
    33    65    17    1
    34    17   147    1
    35    66    18    1
    36    18   153    1
    37    67    19    1
    38    19   154    1
    39    20    69    1
    40    20   155    1
    41    71    21    1
    42    21   156    1
    43    22    72    1
    44    22   157    1
    45    23    24    1
    46    23    25    1
    47    23    30    1
    48    23    35    1
    49    24    26    1
    50    24    29    1
    51    24    74    1
    52    25    27    1
    53    25    31    1
    54    25    75    1
    55    26    28    1
    56    26    36    1
    57    26    76    1
    58    27    29    1
    59    27    77    1
    60    28    32    1
    61    28    33    1
    62    28    78    1
    63    29    79    1
    64    29    80    1
    65    30    32    1
    66    30    81    1
    67    30    82    1
    68    31    34    1
    69    31    40    1
    70    31    83    1
    71    32    84    1
    72    32    85    1
    73    33    37    1
    74    33    38    1
    75    33    41    1
    76    34    42    1
    77    35    86    1
    78    35    87    1
    79    35    88    1
    80    36    39    1
    81    36    89    1
    82    36    90    1
    83    37    39    2
    84    37    43    1
    85    38    44    1
    86    38    91    1
    87    38    92    1
    88    39    93    1
    89    40    94    1
    90    40    95    1
    91    40    96    1
    92    41    97    1
    93    41    98    1
    94    41    99    1
    95    42    46    1
    96    42   100    1
    97    42   101    1
    98    43    45    1
    99    43   102    1
   100    43   103    1
   101    44    45    1
   102    44   104    1
   103    44   105    1
   104    45   106    1
   105    46    48    1
   106    46   107    1
   107    46   108    1
   108    47   109    1
   109    47   110    1
   110    47   111    1
   111    48    50    1
   112    48    51    1
   113    48   112    1
   114    49    52    1
   115    49   113    1
   116    50   114    1
   117    50   115    1
   118    51   116    1
   119    51   117    1
   120    51   118    1
   121    52    53    1
   122    52   119    1
   123    53    55    1
   124    53   120    1
   125    54    55    1
   126    54    57    1
   127    54   121    1
   128    55   122    1
   129    56    58    1
   130    56   124    1
   131    57   125    1
   132    57   126    1
   133    58    61    1
   134    58   127    1
   135    59    64    1
   136    59   128    1
   137    60    65    1
   138    60   129    1
   139    61    63    1
   140    61   130    1
   141    62    63    1
   142    62    69    1
   143    62   131    1
   144    63   132    1
   145    64    66    1
   146    64   134    1
   147    65    67    1
   148    65   135    1
   149    66    71    1
   150    66   137    1
   151    67    68    1
   152    67   138    1
   153    68    72    1
   154    68   139    1
   155    69   140    1
   156    69   141    1
   157    70    71    1
   158    70    73    1
   159    70   142    1
   160    71   143    1
   161    72   148    1
   162    72   149    1
   163    73   150    1
   164    73   151    1
   165    73   152    1
