@<TRIPOS>MOLECULE
IMPHY003465
 32 34 0 0 0
SMALL
GASTEIGER

@<TRIPOS>ATOM
      1 O           6.0682   -2.0427    0.0000 O.3     1  UNL1       -0.4901
      2 O           6.0682    0.9573    0.0000 O.2     1  UNL1       -0.2912
      3 O           8.6663   -1.5427    0.0000 O.3     1  UNL1       -0.5064
      4 O           2.5381   -2.0668    0.0000 O.3     1  UNL1       -0.5066
      5 O          10.3984    1.4573    0.0000 O.3     1  UNL1       -0.5066
      6 C           6.9343   -0.5427    0.0000 C.3     1  UNL1        0.0846
      7 C           6.9343   -1.5427    0.0000 C.3     1  UNL1        0.1036
      8 C           7.8003   -0.0427    0.0000 C.ar    1  UNL1        0.0081
      9 C           6.0682   -0.0427    0.0000 C.2     1  UNL1        0.1774
     10 C           5.2022   -0.5427    0.0000 C.ar    1  UNL1        0.0600
     11 C           5.2022   -1.5427    0.0000 C.ar    1  UNL1        0.1345
     12 C           8.6663   -0.5427    0.0000 C.ar    1  UNL1        0.1243
     13 C           7.8003    0.9573    0.0000 C.ar    1  UNL1       -0.0509
     14 C           4.3083   -0.0080    0.0000 C.ar    1  UNL1       -0.0443
     15 C           4.3083   -2.0773    0.0000 C.ar    1  UNL1        0.0222
     16 C           9.5323   -0.0427    0.0000 C.ar    1  UNL1        0.0216
     17 C           8.6663    1.4573    0.0000 C.ar    1  UNL1       -0.0197
     18 C           3.4022   -0.5219    0.0000 C.ar    1  UNL1       -0.0193
     19 C           3.4022   -1.5635    0.0000 C.ar    1  UNL1        0.1204
     20 C           9.5323    0.9573    0.0000 C.ar    1  UNL1        0.1203
     21 H           6.9343    0.3073    0.0000 H       1  UNL1        0.0464
     22 H           7.1463   -2.1253    0.0000 H       1  UNL1        0.0707
     23 H           7.5449   -1.4350    0.0000 H       1  UNL1        0.0707
     24 H           7.2634    1.2673    0.0000 H       1  UNL1        0.0623
     25 H           4.3154    0.6120    0.0000 H       1  UNL1        0.0627
     26 H           4.3154   -2.6973    0.0000 H       1  UNL1        0.0691
     27 H          10.0693   -0.3527    0.0000 H       1  UNL1        0.0691
     28 H           8.6663    2.0773    0.0000 H       1  UNL1        0.0654
     29 H           2.8665   -0.2098    0.0000 H       1  UNL1        0.0654
     30 H           9.2033   -1.8527    0.0000 H       1  UNL1        0.2921
     31 H           2.0000   -1.7589    0.0000 H       1  UNL1        0.2921
     32 H          10.3984    2.0773    0.0000 H       1  UNL1        0.2921
@<TRIPOS>BOND
     1     1     7    1
     2     1    11    1
     3     2     9    2
     4     3    12    1
     5     3    30    1
     6     4    19    1
     7     4    31    1
     8     5    20    1
     9     5    32    1
    10     6     7    1
    11     6     8    1
    12     6     9    1
    13     6    21    1
    14     7    22    1
    15     7    23    1
    16     8    12   ar
    17     8    13   ar
    18     9    10    1
    19    10    11   ar
    20    10    14   ar
    21    11    15   ar
    22    12    16   ar
    23    13    17   ar
    24    13    24    1
    25    14    18   ar
    26    14    25    1
    27    15    19   ar
    28    15    26    1
    29    16    20   ar
    30    16    27    1
    31    17    20   ar
    32    17    28    1
    33    18    19   ar
    34    18    29    1
