@<TRIPOS>MOLECULE
IMPHY007786
 62 66 0 0 0
SMALL
GASTEIGER

@<TRIPOS>ATOM
      1 O           5.5301   -1.3455    0.0000 O.2     1  UNL1       -0.4622
      2 O           8.8962   -0.7115    0.0000 O.2     1  UNL1       -0.2911
      3 O           5.5301    1.6545    0.0000 O.2     1  UNL1       -0.2866
      4 O           9.6282   -1.7116    0.0000 O.3     1  UNL1       -0.5058
      5 O           6.1642   -1.7115    0.0000 O.3     1  UNL1       -0.5058
      6 O           3.7817    1.6891    0.0000 O.3     1  UNL1       -0.5058
      7 O          11.8962    1.0205    0.0000 O.3     1  UNL1       -0.5068
      8 O           5.8961    4.4846    0.0000 O.3     1  UNL1       -0.5068
      9 O           2.0000   -1.3697    0.0000 O.3     1  UNL1       -0.5065
     10 O           7.8962   -4.7116    0.0000 O.3     1  UNL1       -0.5065
     11 C           7.8962    1.0205    0.0000 C.3     1  UNL1        0.0233
     12 C           7.3962    0.1545    0.0000 C.3     1  UNL1        0.0646
     13 C           6.3961    0.1545    0.0000 C.ar    1  UNL1        0.0463
     14 C           8.8962    1.0205    0.0000 C.ar    1  UNL1       -0.0387
     15 C           7.3962    1.8865    0.0000 C.ar    1  UNL1       -0.0387
     16 C           7.8962   -0.7115    0.0000 C.2     1  UNL1        0.1786
     17 C           5.5301    0.6545    0.0000 C.ar    1  UNL1        0.1999
     18 C           7.8962   -1.7116    0.0000 C.ar    1  UNL1        0.1009
     19 C           6.3961   -0.8455    0.0000 C.ar    1  UNL1        0.1000
     20 C           9.3962    1.8865    0.0000 C.ar    1  UNL1       -0.0545
     21 C           6.3961    1.8865    0.0000 C.ar    1  UNL1       -0.0545
     22 C           9.3962    0.1545    0.0000 C.ar    1  UNL1       -0.0545
     23 C           7.8962    2.7526    0.0000 C.ar    1  UNL1       -0.0545
     24 C           4.6641    0.1545    0.0000 C.ar    1  UNL1        0.1057
     25 C           4.6641   -0.8455    0.0000 C.ar    1  UNL1        0.1454
     26 C           5.8961    2.7526    0.0000 C.ar    1  UNL1       -0.0199
     27 C          10.3962    1.8865    0.0000 C.ar    1  UNL1       -0.0199
     28 C          10.3962    0.1545    0.0000 C.ar    1  UNL1       -0.0199
     29 C           7.3962    3.6186    0.0000 C.ar    1  UNL1       -0.0199
     30 C           8.7623   -2.2115    0.0000 C.ar    1  UNL1        0.1343
     31 C           7.0301   -2.2115    0.0000 C.ar    1  UNL1        0.1343
     32 C           3.7702    0.6891    0.0000 C.ar    1  UNL1        0.1347
     33 C           6.3961    3.6186    0.0000 C.ar    1  UNL1        0.1169
     34 C          10.8962    1.0205    0.0000 C.ar    1  UNL1        0.1169
     35 C           3.7702   -1.3802    0.0000 C.ar    1  UNL1        0.0231
     36 C           8.7622   -3.2115    0.0000 C.ar    1  UNL1        0.0222
     37 C           7.0301   -3.2115    0.0000 C.ar    1  UNL1        0.0222
     38 C           2.8641    0.1753    0.0000 C.ar    1  UNL1        0.0223
     39 C           2.8641   -0.8663    0.0000 C.ar    1  UNL1        0.1239
     40 C           7.8962   -3.7116    0.0000 C.ar    1  UNL1        0.1238
     41 H           7.2762    1.0205    0.0000 H       1  UNL1        0.0407
     42 H           7.0862   -0.3825    0.0000 H       1  UNL1        0.0441
     43 H           6.9331   -1.1555    0.0000 H       1  UNL1        0.1034
     44 H           6.0862    1.3496    0.0000 H       1  UNL1        0.0622
     45 H           9.0862    2.4235    0.0000 H       1  UNL1        0.0622
     46 H           8.5162    2.7526    0.0000 H       1  UNL1        0.0622
     47 H           9.0862   -0.3825    0.0000 H       1  UNL1        0.0622
     48 H          10.7062    2.4235    0.0000 H       1  UNL1        0.0654
     49 H           5.2762    2.7526    0.0000 H       1  UNL1        0.0654
     50 H          10.7062   -0.3825    0.0000 H       1  UNL1        0.0654
     51 H           7.7062    4.1555    0.0000 H       1  UNL1        0.0654
     52 H           3.7773   -2.0001    0.0000 H       1  UNL1        0.0691
     53 H           9.2992   -3.5215    0.0000 H       1  UNL1        0.0691
     54 H           6.4932   -3.5216    0.0000 H       1  UNL1        0.0691
     55 H           2.3284    0.4874    0.0000 H       1  UNL1        0.0691
     56 H          10.1651   -2.0216    0.0000 H       1  UNL1        0.2922
     57 H           5.6272   -2.0215    0.0000 H       1  UNL1        0.2922
     58 H           3.2484    2.0053    0.0000 H       1  UNL1        0.2922
     59 H          12.2062    1.5574    0.0000 H       1  UNL1        0.2921
     60 H           6.2062    5.0215    0.0000 H       1  UNL1        0.2921
     61 H           2.0024   -1.9897    0.0000 H       1  UNL1        0.2921
     62 H           8.4331   -5.0215    0.0000 H       1  UNL1        0.2921
@<TRIPOS>BOND
     1     1    19   ar
     2     1    25   ar
     3     2    16    2
     4     3    17    2
     5     4    30    1
     6     4    56    1
     7     5    31    1
     8     5    57    1
     9     6    32    1
    10     6    58    1
    11     7    34    1
    12     7    59    1
    13     8    33    1
    14     8    60    1
    15     9    39    1
    16     9    61    1
    17    10    40    1
    18    10    62    1
    19    11    12    1
    20    11    14    1
    21    11    15    1
    22    11    41    1
    23    12    13    1
    24    12    16    1
    25    12    42    1
    26    13    17   ar
    27    13    19   ar
    28    14    20   ar
    29    14    22   ar
    30    15    21   ar
    31    15    23   ar
    32    16    18    1
    33    17    24   ar
    34    18    30   ar
    35    18    31   ar
    36    19    43    1
    37    20    27   ar
    38    20    45    1
    39    21    26   ar
    40    21    44    1
    41    22    28   ar
    42    22    47    1
    43    23    29   ar
    44    23    46    1
    45    24    25   ar
    46    24    32   ar
    47    25    35   ar
    48    26    33   ar
    49    26    49    1
    50    27    34   ar
    51    27    48    1
    52    28    34   ar
    53    28    50    1
    54    29    33   ar
    55    29    51    1
    56    30    36   ar
    57    31    37   ar
    58    32    38   ar
    59    35    39   ar
    60    35    52    1
    61    36    40   ar
    62    36    53    1
    63    37    40   ar
    64    37    54    1
    65    38    39   ar
    66    38    55    1
