@<TRIPOS>MOLECULE
IMPHY005110
 81 85 0 0 0
SMALL
GASTEIGER

@<TRIPOS>ATOM
      1 O           5.3307    0.8628    0.0000 O.3     1  UNL1       -0.3915
      2 O           4.3792    0.4198    0.0000 O.3     1  UNL1       -0.3911
      3 O           2.5357   -2.6896    0.0000 O.3     1  UNL1       -0.3912
      4 O           7.3824    2.4367    0.0000 O.2     1  UNL1       -0.2974
      5 C           7.0628   -1.1372    0.0000 C.3     1  UNL1       -0.0206
      6 C           7.9288   -0.6372    0.0000 C.3     1  UNL1       -0.0231
      7 C           6.1968   -0.6372    0.0000 C.3     1  UNL1       -0.0011
      8 C           7.9288    0.3628    0.0000 C.3     1  UNL1       -0.0288
      9 C           5.2868   -1.1441    0.0000 C.3     1  UNL1        0.0030
     10 C           8.8228    0.8974    0.0000 C.3     1  UNL1       -0.0227
     11 C           5.2787   -2.1857    0.0000 C.3     1  UNL1       -0.0254
     12 C           9.7288    0.3836    0.0000 C.3     1  UNL1       -0.0283
     13 C           6.1968    0.3628    0.0000 C.3     1  UNL1        0.0594
     14 C           7.0789   -2.1788    0.0000 C.3     1  UNL1       -0.0465
     15 C           8.8228   -1.1719    0.0000 C.3     1  UNL1       -0.0463
     16 C           7.0628    0.8628    0.0000 C.3     1  UNL1       -0.0229
     17 C           6.1808   -2.7065    0.0000 C.3     1  UNL1       -0.0485
     18 C           9.7288   -0.6581    0.0000 C.3     1  UNL1       -0.0468
     19 C           4.3433   -2.7354    0.0000 C.3     1  UNL1       -0.0054
     20 C           9.0329    1.9113    0.0000 C.3     1  UNL1        0.0208
     21 C           4.3599   -0.5800    0.0000 C.3     1  UNL1        0.0636
     22 C           7.7056   -1.9033    0.0000 C.3     1  UNL1       -0.0587
     23 C           8.2709   -1.5769    0.0000 C.3     1  UNL1       -0.0588
     24 C          10.4911    1.0843    0.0000 C.3     1  UNL1       -0.0467
     25 C          10.0619    2.0266    0.0000 C.3     1  UNL1       -0.0427
     26 C           5.2945   -0.1441    0.0000 C.3     1  UNL1       -0.0566
     27 C           3.4037   -2.1929    0.0000 C.3     1  UNL1        0.0630
     28 C           3.4120   -1.1080    0.0000 C.3     1  UNL1        0.0003
     29 C          10.5987   -0.1097    0.0000 C.3     1  UNL1       -0.0593
     30 C           3.8467   -3.6034    0.0000 C.3     1  UNL1       -0.0572
     31 C           4.8466   -3.5995    0.0000 C.3     1  UNL1       -0.0572
     32 C           8.3593    2.6505    0.0000 C.2     1  UNL1        0.1337
     33 C           8.6626    3.6034    0.0000 C.3     1  UNL1       -0.0058
     34 H           6.9329   -0.2122    0.0000 H       1  UNL1        0.0337
     35 H           7.9223    1.2127    0.0000 H       1  UNL1        0.0310
     36 H           8.1300    1.3900    0.0000 H       1  UNL1        0.0316
     37 H           5.2820   -3.0357    0.0000 H       1  UNL1        0.0313
     38 H           6.1968    0.9828    0.0000 H       1  UNL1        0.0596
     39 H           7.2969   -2.7592    0.0000 H       1  UNL1        0.0271
     40 H           7.6880   -2.0632    0.0000 H       1  UNL1        0.0271
     41 H           8.4182   -1.6417    0.0000 H       1  UNL1        0.0271
     42 H           9.2164   -1.6509    0.0000 H       1  UNL1        0.0271
     43 H           7.4613    1.3377    0.0000 H       1  UNL1        0.0293
     44 H           6.6643    1.3377    0.0000 H       1  UNL1        0.0293
     45 H           5.7835   -3.1825    0.0000 H       1  UNL1        0.0268
     46 H           6.5818   -3.1794    0.0000 H       1  UNL1        0.0268
     47 H           9.9379   -1.2418    0.0000 H       1  UNL1        0.0271
     48 H          10.3397   -0.5520    0.0000 H       1  UNL1        0.0271
     49 H           9.2513    2.4916    0.0000 H       1  UNL1        0.0380
     50 H           3.8284   -0.2607    0.0000 H       1  UNL1        0.0600
     51 H           7.2306   -2.3018    0.0000 H       1  UNL1        0.0235
     52 H           8.1041   -2.3782    0.0000 H       1  UNL1        0.0235
     53 H           8.1805   -1.5048    0.0000 H       1  UNL1        0.0235
     54 H           7.6884   -1.7890    0.0000 H       1  UNL1        0.0235
     55 H           8.4830   -2.1595    0.0000 H       1  UNL1        0.0235
     56 H           8.8535   -1.3648    0.0000 H       1  UNL1        0.0235
     57 H          10.8604    0.5863    0.0000 H       1  UNL1        0.0271
     58 H          11.0252    1.3992    0.0000 H       1  UNL1        0.0271
     59 H          10.6500    2.2229    0.0000 H       1  UNL1        0.0272
     60 H           9.9285    2.6321    0.0000 H       1  UNL1        0.0272
     61 H           5.9145   -0.1489    0.0000 H       1  UNL1        0.0236
     62 H           5.2993    0.4759    0.0000 H       1  UNL1        0.0236
     63 H           4.6745   -0.1393    0.0000 H       1  UNL1        0.0236
     64 H           3.4025   -2.8129    0.0000 H       1  UNL1        0.0599
     65 H           3.2075   -0.5227    0.0000 H       1  UNL1        0.0315
     66 H           2.8004   -1.2093    0.0000 H       1  UNL1        0.0315
     67 H          10.2928   -0.6490    0.0000 H       1  UNL1        0.0235
     68 H          11.1380   -0.4156    0.0000 H       1  UNL1        0.0235
     69 H          10.9045    0.4296    0.0000 H       1  UNL1        0.0235
     70 H           4.3109   -3.9116    0.0000 H       1  UNL1        0.0236
     71 H           5.1587   -4.1352    0.0000 H       1  UNL1        0.0236
     72 H           5.3824   -3.2874    0.0000 H       1  UNL1        0.0236
     73 H           3.3085   -3.2954    0.0000 H       1  UNL1        0.0236
     74 H           3.5387   -4.1415    0.0000 H       1  UNL1        0.0236
     75 H           4.3848   -3.9113    0.0000 H       1  UNL1        0.0236
     76 H           5.3307    1.4828    0.0000 H       1  UNL1        0.2098
     77 H           3.8483    0.7401    0.0000 H       1  UNL1        0.2098
     78 H           2.0000   -2.3775    0.0000 H       1  UNL1        0.2098
     79 H           9.2534    3.4153    0.0000 H       1  UNL1        0.0306
     80 H           8.8507    4.1941    0.0000 H       1  UNL1        0.0306
     81 H           8.0718    3.7914    0.0000 H       1  UNL1        0.0306
@<TRIPOS>BOND
     1    13     1    1
     2     1    76    1
     3    21     2    1
     4     2    77    1
     5    27     3    1
     6     3    78    1
     7     4    32    2
     8     5     6    1
     9     5     7    1
    10     5    14    1
    11     5    22    1
    12     6     8    1
    13     6    15    1
    14     6    23    1
    15     7     9    1
    16     7    13    1
    17     7    34    1
    18     8    10    1
    19     8    16    1
    20     8    35    1
    21     9    11    1
    22     9    21    1
    23     9    26    1
    24    10    12    1
    25    10    20    1
    26    10    36    1
    27    11    17    1
    28    11    19    1
    29    11    37    1
    30    12    18    1
    31    12    24    1
    32    12    29    1
    33    13    16    1
    34    13    38    1
    35    14    17    1
    36    14    39    1
    37    14    40    1
    38    15    18    1
    39    15    41    1
    40    15    42    1
    41    16    43    1
    42    16    44    1
    43    17    45    1
    44    17    46    1
    45    18    47    1
    46    18    48    1
    47    19    27    1
    48    19    30    1
    49    19    31    1
    50    20    25    1
    51    20    32    1
    52    20    49    1
    53    21    28    1
    54    21    50    1
    55    22    51    1
    56    22    52    1
    57    22    53    1
    58    23    54    1
    59    23    55    1
    60    23    56    1
    61    24    25    1
    62    24    57    1
    63    24    58    1
    64    25    59    1
    65    25    60    1
    66    26    61    1
    67    26    62    1
    68    26    63    1
    69    27    28    1
    70    27    64    1
    71    28    65    1
    72    28    66    1
    73    29    67    1
    74    29    68    1
    75    29    69    1
    76    30    73    1
    77    30    74    1
    78    30    75    1
    79    31    70    1
    80    31    71    1
    81    31    72    1
    82    32    33    1
    83    33    79    1
    84    33    80    1
    85    33    81    1
