@<TRIPOS>MOLECULE
IMPHY004697
 68 71 0 0 0
SMALL
GASTEIGER

@<TRIPOS>ATOM
      1 O           6.0290    1.3689    0.0000 O.3     1  UNL1       -0.4808
      2 O           7.7991    3.4278    0.0000 O.3     1  UNL1       -0.3875
      3 O           4.2690    4.4036    0.0000 O.3     1  UNL1       -0.5063
      4 O           2.5369    1.4036    0.0000 O.3     1  UNL1       -0.5062
      5 O           2.9835   -1.1286    0.0000 O.3     1  UNL1       -0.5055
      6 O           6.2386    0.0563    0.0000 O.3     1  UNL1       -0.5060
      7 O           5.6371   -3.3552    0.0000 O.3     1  UNL1       -0.4939
      8 O          10.3991    1.8694    0.0000 O.3     1  UNL1       -0.5033
      9 O          10.3914   -0.1305    0.0000 O.3     1  UNL1       -0.5033
     10 O           2.6826   -2.8342    0.0000 O.2     1  UNL1       -0.2915
     11 C           6.9350    2.9244    0.0000 C.3     1  UNL1        0.1004
     12 C           6.9350    1.8828    0.0000 C.3     1  UNL1        0.1513
     13 C           6.0290    3.4383    0.0000 C.3     1  UNL1        0.0092
     14 C           5.1350    2.9036    0.0000 C.ar    1  UNL1        0.0387
     15 C           5.1350    1.9036    0.0000 C.ar    1  UNL1        0.1352
     16 C           4.2690    1.4036    0.0000 C.ar    1  UNL1        0.0407
     17 C           7.7991    1.3795    0.0000 C.ar    1  UNL1       -0.0012
     18 C           4.2690    0.4036    0.0000 C.3     1  UNL1        0.0115
     19 C           4.2690    3.4036    0.0000 C.ar    1  UNL1        0.1271
     20 C           3.4030    1.9036    0.0000 C.ar    1  UNL1        0.1273
     21 C           4.6110   -0.5361    0.0000 C.ar    1  UNL1        0.0411
     22 C           3.4030    2.9036    0.0000 C.ar    1  UNL1        0.0221
     23 C           8.6671    1.8761    0.0000 C.ar    1  UNL1       -0.0098
     24 C           7.7953    0.3795    0.0000 C.ar    1  UNL1       -0.0513
     25 C           3.9682   -1.3021    0.0000 C.ar    1  UNL1        0.1378
     26 C           5.5958   -0.7097    0.0000 C.ar    1  UNL1        0.1302
     27 C           4.3102   -2.2418    0.0000 C.ar    1  UNL1        0.1013
     28 C           5.9378   -1.6494    0.0000 C.ar    1  UNL1        0.0337
     29 C           5.2950   -2.4155    0.0000 C.ar    1  UNL1        0.1405
     30 C           9.5312    1.3728    0.0000 C.ar    1  UNL1        0.1586
     31 C           8.6594   -0.1239    0.0000 C.ar    1  UNL1       -0.0162
     32 C           3.6674   -3.0079    0.0000 C.2     1  UNL1        0.1727
     33 C           4.0095   -3.9476    0.0000 C.3     1  UNL1        0.0167
     34 C           9.5273    0.3728    0.0000 C.ar    1  UNL1        0.1582
     35 C           6.9226   -1.8231    0.0000 C.3     1  UNL1       -0.0327
     36 C           3.3667   -4.7136    0.0000 C.3     1  UNL1       -0.0556
     37 C           4.9943   -4.1212    0.0000 C.3     1  UNL1       -0.0556
     38 C           6.6219   -3.5288    0.0000 C.3     1  UNL1        0.0788
     39 H           7.4726    2.6155    0.0000 H       1  UNL1        0.0637
     40 H           7.4726    2.1918    0.0000 H       1  UNL1        0.0811
     41 H           6.4226    3.9173    0.0000 H       1  UNL1        0.0342
     42 H           5.6244    3.9081    0.0000 H       1  UNL1        0.0342
     43 H           3.6997    0.6492    0.0000 H       1  UNL1        0.0366
     44 H           4.8796    0.5113    0.0000 H       1  UNL1        0.0366
     45 H           2.8660    3.2136    0.0000 H       1  UNL1        0.0691
     46 H           7.7967    4.0478    0.0000 H       1  UNL1        0.2100
     47 H           8.6694    2.4961    0.0000 H       1  UNL1        0.0659
     48 H           7.2571    0.0715    0.0000 H       1  UNL1        0.0623
     49 H           8.6570   -0.7439    0.0000 H       1  UNL1        0.0655
     50 H           4.2215   -4.5302    0.0000 H       1  UNL1        0.0375
     51 H           3.7320    4.7136    0.0000 H       1  UNL1        0.2921
     52 H           2.0000    1.7136    0.0000 H       1  UNL1        0.2921
     53 H           6.8150   -2.4337    0.0000 H       1  UNL1        0.0280
     54 H           7.5332   -1.9307    0.0000 H       1  UNL1        0.0280
     55 H           7.0303   -1.2125    0.0000 H       1  UNL1        0.0280
     56 H           2.8917   -4.3151    0.0000 H       1  UNL1        0.0236
     57 H           2.9682   -5.1886    0.0000 H       1  UNL1        0.0236
     58 H           3.8416   -5.1121    0.0000 H       1  UNL1        0.0236
     59 H           4.8866   -4.7318    0.0000 H       1  UNL1        0.0236
     60 H           5.6049   -4.2289    0.0000 H       1  UNL1        0.0236
     61 H           5.1019   -3.5106    0.0000 H       1  UNL1        0.0236
     62 H           2.7714   -0.5459    0.0000 H       1  UNL1        0.2922
     63 H           6.8492   -0.0514    0.0000 H       1  UNL1        0.2922
     64 H          10.9348    1.5574    0.0000 H       1  UNL1        0.2923
     65 H          10.3890   -0.7505    0.0000 H       1  UNL1        0.2923
     66 H           6.5142   -4.1394    0.0000 H       1  UNL1        0.0660
     67 H           7.2325   -3.6365    0.0000 H       1  UNL1        0.0660
     68 H           6.7295   -2.9182    0.0000 H       1  UNL1        0.0660
@<TRIPOS>BOND
     1     1    12    1
     2     1    15    1
     3    11     2    1
     4     2    46    1
     5     3    19    1
     6     3    51    1
     7     4    20    1
     8     4    52    1
     9     5    25    1
    10     5    62    1
    11     6    26    1
    12     6    63    1
    13     7    29    1
    14     7    38    1
    15     8    30    1
    16     8    64    1
    17     9    34    1
    18     9    65    1
    19    10    32    2
    20    11    12    1
    21    11    13    1
    22    11    39    1
    23    12    17    1
    24    12    40    1
    25    13    14    1
    26    13    41    1
    27    13    42    1
    28    14    15   ar
    29    14    19   ar
    30    15    16   ar
    31    16    18    1
    32    16    20   ar
    33    17    23   ar
    34    17    24   ar
    35    18    21    1
    36    18    43    1
    37    18    44    1
    38    19    22   ar
    39    20    22   ar
    40    21    25   ar
    41    21    26   ar
    42    22    45    1
    43    23    30   ar
    44    23    47    1
    45    24    31   ar
    46    24    48    1
    47    25    27   ar
    48    26    28   ar
    49    27    29   ar
    50    27    32    1
    51    28    29   ar
    52    28    35    1
    53    30    34   ar
    54    31    34   ar
    55    31    49    1
    56    32    33    1
    57    33    36    1
    58    33    37    1
    59    33    50    1
    60    35    53    1
    61    35    54    1
    62    35    55    1
    63    36    56    1
    64    36    57    1
    65    36    58    1
    66    37    59    1
    67    37    60    1
    68    37    61    1
    69    38    66    1
    70    38    67    1
    71    38    68    1
