@<TRIPOS>MOLECULE
IMPHY002391
 19 18 0 0 0
SMALL
GASTEIGER

@<TRIPOS>ATOM
      1 S           7.1962    1.0000    0.0000 S.2     1  UNL1        0.0203
      2 N           5.4641    0.0000    0.0000 N.2     1  UNL1       -0.2343
      3 C           3.7320    0.0000    0.0000 C.3     1  UNL1       -0.0238
      4 C           2.8660    0.5000    0.0000 C.3     1  UNL1       -0.0516
      5 C           4.5981    0.5000    0.0000 C.3     1  UNL1        0.0521
      6 C           3.7320   -1.0000    0.0000 C.3     1  UNL1       -0.0607
      7 C           2.0000    0.0000    0.0000 C.3     1  UNL1       -0.0650
      8 C           6.3301    0.5000    0.0000 C.1     1  UNL1        0.0358
      9 H           4.2690   -0.3100    0.0000 H       1  UNL1        0.0316
     10 H           3.2646    0.9749    0.0000 H       1  UNL1        0.0266
     11 H           2.4675    0.9749    0.0000 H       1  UNL1        0.0266
     12 H           4.9966    0.9749    0.0000 H       1  UNL1        0.0519
     13 H           4.1996    0.9749    0.0000 H       1  UNL1        0.0519
     14 H           3.1120   -1.0000    0.0000 H       1  UNL1        0.0233
     15 H           3.7320   -1.6200    0.0000 H       1  UNL1        0.0233
     16 H           4.3520   -1.0000    0.0000 H       1  UNL1        0.0233
     17 H           1.6900    0.5369    0.0000 H       1  UNL1        0.0230
     18 H           1.4631   -0.3100    0.0000 H       1  UNL1        0.0230
     19 H           2.3100   -0.5369    0.0000 H       1  UNL1        0.0230
@<TRIPOS>BOND
     1     1     8    2
     2     2     5    1
     3     2     8    2
     4     3     4    1
     5     3     5    1
     6     3     6    1
     7     3     9    1
     8     4     7    1
     9     4    10    1
    10     4    11    1
    11     5    12    1
    12     5    13    1
    13     6    14    1
    14     6    15    1
    15     6    16    1
    16     7    17    1
    17     7    18    1
    18     7    19    1
