@<TRIPOS>MOLECULE
IMPHY012612
 40 39 0 0 0
SMALL
GASTEIGER

@<TRIPOS>ATOM
      1 O           4.5981   -1.2500    0.0000 O.2     1  UNL1       -0.2974
      2 C           8.9282    0.2500    0.0000 C.3     1  UNL1       -0.0528
      3 C           8.0622   -0.2500    0.0000 C.3     1  UNL1       -0.0530
      4 C           9.7942   -0.2500    0.0000 C.3     1  UNL1       -0.0507
      5 C           7.1962    0.2500    0.0000 C.3     1  UNL1       -0.0527
      6 C          10.6603    0.2500    0.0000 C.3     1  UNL1       -0.0467
      7 C           6.3301   -0.2500    0.0000 C.3     1  UNL1       -0.0464
      8 C           5.4641    0.2500    0.0000 C.3     1  UNL1        0.0058
      9 C          11.5263   -0.2500    0.0000 C.3     1  UNL1       -0.0627
     10 C          10.6603    1.2500    0.0000 C.3     1  UNL1       -0.0627
     11 C           4.5981   -0.2500    0.0000 C.2     1  UNL1        0.1334
     12 C           3.7320    0.2500    0.0000 C.3     1  UNL1        0.0056
     13 C           2.8660   -0.2500    0.0000 C.3     1  UNL1       -0.0492
     14 C           2.0000    0.2500    0.0000 C.3     1  UNL1       -0.0649
     15 H           9.3267    0.7249    0.0000 H       1  UNL1        0.0265
     16 H           8.5297    0.7249    0.0000 H       1  UNL1        0.0265
     17 H           7.6636   -0.7249    0.0000 H       1  UNL1        0.0265
     18 H           8.4607   -0.7249    0.0000 H       1  UNL1        0.0265
     19 H           9.3957   -0.7249    0.0000 H       1  UNL1        0.0268
     20 H          10.1928   -0.7249    0.0000 H       1  UNL1        0.0268
     21 H           7.5947    0.7249    0.0000 H       1  UNL1        0.0265
     22 H           6.7976    0.7249    0.0000 H       1  UNL1        0.0265
     23 H          11.1972    0.5600    0.0000 H       1  UNL1        0.0295
     24 H           5.9316   -0.7249    0.0000 H       1  UNL1        0.0269
     25 H           6.7287   -0.7249    0.0000 H       1  UNL1        0.0269
     26 H           5.8626    0.7249    0.0000 H       1  UNL1        0.0342
     27 H           5.0656    0.7249    0.0000 H       1  UNL1        0.0342
     28 H          11.2163   -0.7869    0.0000 H       1  UNL1        0.0232
     29 H          12.0632   -0.5600    0.0000 H       1  UNL1        0.0232
     30 H          11.8363    0.2869    0.0000 H       1  UNL1        0.0232
     31 H          11.2803    1.2500    0.0000 H       1  UNL1        0.0232
     32 H          10.6603    1.8700    0.0000 H       1  UNL1        0.0232
     33 H          10.0403    1.2500    0.0000 H       1  UNL1        0.0232
     34 H           4.1306    0.7249    0.0000 H       1  UNL1        0.0341
     35 H           3.3335    0.7249    0.0000 H       1  UNL1        0.0341
     36 H           2.4675   -0.7249    0.0000 H       1  UNL1        0.0267
     37 H           3.2646   -0.7249    0.0000 H       1  UNL1        0.0267
     38 H           2.3100    0.7869    0.0000 H       1  UNL1        0.0230
     39 H           1.4631    0.5600    0.0000 H       1  UNL1        0.0230
     40 H           1.6900   -0.2869    0.0000 H       1  UNL1        0.0230
@<TRIPOS>BOND
     1     1    11    2
     2     2     3    1
     3     2     4    1
     4     2    15    1
     5     2    16    1
     6     3     5    1
     7     3    17    1
     8     3    18    1
     9     4     6    1
    10     4    19    1
    11     4    20    1
    12     5     7    1
    13     5    21    1
    14     5    22    1
    15     6     9    1
    16     6    10    1
    17     6    23    1
    18     7     8    1
    19     7    24    1
    20     7    25    1
    21     8    11    1
    22     8    26    1
    23     8    27    1
    24     9    28    1
    25     9    29    1
    26     9    30    1
    27    10    31    1
    28    10    32    1
    29    10    33    1
    30    11    12    1
    31    12    13    1
    32    12    34    1
    33    12    35    1
    34    13    14    1
    35    13    36    1
    36    13    37    1
    37    14    38    1
    38    14    39    1
    39    14    40    1
