@<TRIPOS>MOLECULE
IMPHY004854
 56 61 0 0 0
SMALL
GASTEIGER

@<TRIPOS>ATOM
      1 O           6.4144    1.2621    0.0000 O.3     1  UNL1       -0.5054
      2 O           9.1138   -1.2621    0.0000 O.3     1  UNL1       -0.5054
      3 O           4.6660    1.2275    0.0000 O.2     1  UNL1       -0.2864
      4 O          10.8622   -1.2275    0.0000 O.2     1  UNL1       -0.2864
      5 O           4.6660   -2.7725    0.0000 O.2     1  UNL1       -0.2866
      6 O          10.8622    2.7725    0.0000 O.2     1  UNL1       -0.2866
      7 O           2.9176    1.2621    0.0000 O.3     1  UNL1       -0.5060
      8 O          12.6106   -1.2621    0.0000 O.3     1  UNL1       -0.5060
      9 C           7.3321   -0.2517    0.0000 C.ar    1  UNL1        0.0310
     10 C           8.1962    0.2517    0.0000 C.ar    1  UNL1        0.0310
     11 C           9.9962    0.2725    0.0000 C.ar    1  UNL1        0.0752
     12 C           5.5321   -0.2725    0.0000 C.ar    1  UNL1        0.0752
     13 C           8.1962    1.2933    0.0000 C.ar    1  UNL1       -0.0384
     14 C           7.3321   -1.2933    0.0000 C.ar    1  UNL1       -0.0384
     15 C           9.9962    1.2725    0.0000 C.ar    1  UNL1        0.0369
     16 C           5.5321   -1.2725    0.0000 C.ar    1  UNL1        0.0369
     17 C           9.1022   -0.2622    0.0000 C.ar    1  UNL1        0.1364
     18 C           6.4260    0.2622    0.0000 C.ar    1  UNL1        0.1364
     19 C           6.4260   -1.8071    0.0000 C.ar    1  UNL1       -0.0465
     20 C           9.1022    1.8071    0.0000 C.ar    1  UNL1       -0.0465
     21 C           4.6660    0.2275    0.0000 C.2     1  UNL1        0.2015
     22 C          10.8622   -0.2275    0.0000 C.2     1  UNL1        0.2015
     23 C          11.7282    0.2725    0.0000 C.ar    1  UNL1        0.0745
     24 C           3.8000   -0.2725    0.0000 C.ar    1  UNL1        0.0745
     25 C           4.6660   -1.7725    0.0000 C.2     1  UNL1        0.1947
     26 C          10.8622    1.7725    0.0000 C.2     1  UNL1        0.1947
     27 C           3.8000   -1.2725    0.0000 C.ar    1  UNL1        0.0366
     28 C          11.7282    1.2725    0.0000 C.ar    1  UNL1        0.0366
     29 C           7.3321    1.7966    0.0000 C.3     1  UNL1       -0.0390
     30 C           8.1962   -1.7966    0.0000 C.3     1  UNL1       -0.0390
     31 C          12.6222   -0.2622    0.0000 C.ar    1  UNL1        0.1283
     32 C           2.9061    0.2622    0.0000 C.ar    1  UNL1        0.1283
     33 C          12.6222    1.8071    0.0000 C.ar    1  UNL1       -0.0500
     34 C           2.9061   -1.8071    0.0000 C.ar    1  UNL1       -0.0500
     35 C           2.0000   -0.2517    0.0000 C.ar    1  UNL1       -0.0194
     36 C          13.5282    0.2517    0.0000 C.ar    1  UNL1       -0.0194
     37 C           2.0000   -1.2933    0.0000 C.ar    1  UNL1       -0.0576
     38 C          13.5282    1.2933    0.0000 C.ar    1  UNL1       -0.0576
     39 H           9.1094    2.4271    0.0000 H       1  UNL1        0.0628
     40 H           6.4188   -2.4271    0.0000 H       1  UNL1        0.0628
     41 H           7.6441    2.3324    0.0000 H       1  UNL1        0.0278
     42 H           7.8841   -2.3324    0.0000 H       1  UNL1        0.0278
     43 H           8.7319   -2.1087    0.0000 H       1  UNL1        0.0278
     44 H           8.5082   -1.2609    0.0000 H       1  UNL1        0.0278
     45 H           6.7963    2.1087    0.0000 H       1  UNL1        0.0278
     46 H           7.0200    1.2609    0.0000 H       1  UNL1        0.0278
     47 H          12.6150    2.4271    0.0000 H       1  UNL1        0.0625
     48 H           2.9132   -2.4271    0.0000 H       1  UNL1        0.0625
     49 H           5.8740    1.5659    0.0000 H       1  UNL1        0.2922
     50 H           9.6543   -1.5659    0.0000 H       1  UNL1        0.2922
     51 H          14.0640   -0.0604    0.0000 H       1  UNL1        0.0654
     52 H           1.4643    0.0604    0.0000 H       1  UNL1        0.0654
     53 H          14.0640    1.6054    0.0000 H       1  UNL1        0.0619
     54 H           1.4643   -1.6054    0.0000 H       1  UNL1        0.0619
     55 H          13.1439   -1.5783    0.0000 H       1  UNL1        0.2922
     56 H           2.3843    1.5783    0.0000 H       1  UNL1        0.2922
@<TRIPOS>BOND
     1     1    18    1
     2     1    49    1
     3     2    17    1
     4     2    50    1
     5     3    21    2
     6     4    22    2
     7     5    25    2
     8     6    26    2
     9     7    32    1
    10     7    56    1
    11     8    31    1
    12     8    55    1
    13     9    10    1
    14     9    14   ar
    15     9    18   ar
    16    10    13   ar
    17    10    17   ar
    18    11    15   ar
    19    11    17   ar
    20    11    22    1
    21    12    16   ar
    22    12    18   ar
    23    12    21    1
    24    13    20   ar
    25    13    29    1
    26    14    19   ar
    27    14    30    1
    28    15    20   ar
    29    15    26    1
    30    16    19   ar
    31    16    25    1
    32    19    40    1
    33    20    39    1
    34    21    24    1
    35    22    23    1
    36    23    28   ar
    37    23    31   ar
    38    24    27   ar
    39    24    32   ar
    40    25    27    1
    41    26    28    1
    42    27    34   ar
    43    28    33   ar
    44    29    41    1
    45    29    45    1
    46    29    46    1
    47    30    42    1
    48    30    43    1
    49    30    44    1
    50    31    36   ar
    51    32    35   ar
    52    33    38   ar
    53    33    47    1
    54    34    37   ar
    55    34    48    1
    56    35    37   ar
    57    35    52    1
    58    36    38   ar
    59    36    51    1
    60    37    54    1
    61    38    53    1
