@<TRIPOS>MOLECULE
IMPHY013271
 42 44 0 0 0
SMALL
GASTEIGER

@<TRIPOS>ATOM
      1 O           4.5981   -1.2246    0.0000 O.3     1  UNL1       -0.4825
      2 O           2.0000   -3.7246    0.0000 O.3     1  UNL1       -0.3865
      3 O           4.5981   -3.2246    0.0000 O.3     1  UNL1       -0.3856
      4 O           2.7858   -0.0294    0.0000 O.2     1  UNL1       -0.4590
      5 O           4.5820    2.8169    0.0000 O.2     1  UNL1       -0.4213
      6 O           6.3301   -0.2246    0.0000 O.3     1  UNL1       -0.4906
      7 O           5.4762    4.3446    0.0000 O.2     1  UNL1       -0.2452
      8 C           2.8660   -3.2246    0.0000 C.3     1  UNL1        0.0894
      9 C           3.7320   -2.7246    0.0000 C.3     1  UNL1        0.1171
     10 C           3.7320   -1.7246    0.0000 C.3     1  UNL1        0.1184
     11 C           3.3660   -4.0906    0.0000 C.3     1  UNL1       -0.0338
     12 C           2.3660   -2.3586    0.0000 C.3     1  UNL1       -0.0338
     13 C           4.5981   -0.2246    0.0000 C.ar    1  UNL1        0.2059
     14 C           3.7320    0.2754    0.0000 C.ar    1  UNL1        0.1834
     15 C           3.7320    1.2754    0.0000 C.ar    1  UNL1        0.0669
     16 C           5.4641    0.2754    0.0000 C.ar    1  UNL1        0.1759
     17 C           5.4641    1.2754    0.0000 C.ar    1  UNL1        0.0637
     18 C           4.5981    1.7754    0.0000 C.ar    1  UNL1        0.1535
     19 C           2.7858    1.5801    0.0000 C.ar    1  UNL1       -0.0124
     20 C           6.3741    1.7822    0.0000 C.ar    1  UNL1       -0.0406
     21 C           2.2022    0.7754    0.0000 C.ar    1  UNL1        0.0934
     22 C           6.3821    2.8238    0.0000 C.ar    1  UNL1        0.0237
     23 C           5.4800    3.3446    0.0000 C.ar    1  UNL1        0.3372
     24 C           6.3301   -1.2246    0.0000 C.3     1  UNL1        0.0790
     25 H           3.7320   -3.3446    0.0000 H       1  UNL1        0.0656
     26 H           3.5200   -1.1420    0.0000 H       1  UNL1        0.0724
     27 H           3.1215   -1.8323    0.0000 H       1  UNL1        0.0724
     28 H           2.8291   -4.4006    0.0000 H       1  UNL1        0.0258
     29 H           3.6760   -4.6276    0.0000 H       1  UNL1        0.0258
     30 H           3.9030   -3.7806    0.0000 H       1  UNL1        0.0258
     31 H           2.9030   -2.0486    0.0000 H       1  UNL1        0.0258
     32 H           2.0560   -1.8217    0.0000 H       1  UNL1        0.0258
     33 H           1.8291   -2.6686    0.0000 H       1  UNL1        0.0258
     34 H           2.0000   -4.3446    0.0000 H       1  UNL1        0.2102
     35 H           4.5981   -3.8446    0.0000 H       1  UNL1        0.2100
     36 H           2.5932    2.1694    0.0000 H       1  UNL1        0.0656
     37 H           6.9074    1.4660    0.0000 H       1  UNL1        0.0628
     38 H           1.5822    0.7754    0.0000 H       1  UNL1        0.1030
     39 H           6.9203    3.1317    0.0000 H       1  UNL1        0.0689
     40 H           5.7101   -1.2246    0.0000 H       1  UNL1        0.0660
     41 H           6.3301   -1.8446    0.0000 H       1  UNL1        0.0660
     42 H           6.9501   -1.2246    0.0000 H       1  UNL1        0.0660
@<TRIPOS>BOND
     1     1    10    1
     2     1    13    1
     3     2     8    1
     4     2    34    1
     5     9     3    1
     6     3    35    1
     7     4    14   ar
     8     4    21   ar
     9     5    18   ar
    10     5    23   ar
    11     6    16    1
    12     6    24    1
    13     7    23    2
    14     8     9    1
    15     8    11    1
    16     8    12    1
    17     9    10    1
    18     9    25    1
    19    10    26    1
    20    10    27    1
    21    11    28    1
    22    11    29    1
    23    11    30    1
    24    12    31    1
    25    12    32    1
    26    12    33    1
    27    13    14   ar
    28    13    16   ar
    29    14    15   ar
    30    15    18   ar
    31    15    19   ar
    32    16    17   ar
    33    17    18   ar
    34    17    20   ar
    35    19    21   ar
    36    19    36    1
    37    20    22   ar
    38    20    37    1
    39    21    38    1
    40    22    23   ar
    41    22    39    1
    42    24    40    1
    43    24    41    1
    44    24    42    1
