@<TRIPOS>MOLECULE
IMPHY009136
 99 104 0 0 0
SMALL
GASTEIGER

@<TRIPOS>ATOM
      1 O           5.7393   -0.5246    0.0000 O.3     1  UNL1       -0.3307
      2 O           6.2214   -1.4898    0.0000 O.3     1  UNL1       -0.3619
      3 O           7.2229   -2.4701    0.0000 O.3     1  UNL1       -0.3768
      4 O           5.1403   -1.7136    0.0000 O.3     1  UNL1       -0.4546
      5 O           8.9376   -2.1875    0.0000 O.3     1  UNL1       -0.4574
      6 O           2.8641    1.9680    0.0000 O.3     1  UNL1       -0.4525
      7 O           9.9485    2.3542    0.0000 O.3     1  UNL1       -0.4679
      8 O          10.1480    0.6337    0.0000 O.2     1  UNL1       -0.2509
      9 O           2.0000    0.4231    0.0000 O.2     1  UNL1       -0.2456
     10 O           6.3216   -2.9802    0.0000 O.2     1  UNL1       -0.2505
     11 O          10.3437   -1.1761    0.0000 O.2     1  UNL1       -0.2505
     12 O           3.2996    5.0263    0.0000 O.2     1  UNL1       -0.4706
     13 C           5.5301    0.4472    0.0000 C.3     1  UNL1        0.1381
     14 C           7.1332    0.2801    0.0000 C.3     1  UNL1        0.0262
     15 C           6.3961    0.9472    0.0000 C.3     1  UNL1        0.0064
     16 C           6.7280   -0.6276    0.0000 C.3     1  UNL1        0.2084
     17 C           7.3230   -1.4752    0.0000 C.3     1  UNL1        0.1970
     18 C           5.8716   -1.0315    0.0000 C.3     1  UNL1        0.1731
     19 C           8.1613    0.4034    0.0000 C.3     1  UNL1       -0.0142
     20 C           8.7756   -0.4302    0.0000 C.3     1  UNL1        0.0090
     21 C           8.3536   -1.3758    0.0000 C.3     1  UNL1        0.1457
     22 C           6.3961    1.9472    0.0000 C.3     1  UNL1       -0.0367
     23 C           4.6641    0.9472    0.0000 C.2     1  UNL1       -0.0177
     24 C           4.6641    1.9472    0.0000 C.3     1  UNL1        0.0338
     25 C           5.5301    2.4472    0.0000 C.3     1  UNL1       -0.0371
     26 C           8.5582    1.3212    0.0000 C.3     1  UNL1        0.0488
     27 C           9.5829    0.1600    0.0000 C.3     1  UNL1       -0.0561
     28 C           9.6904   -0.8342    0.0000 C.3     1  UNL1       -0.0561
     29 C           7.2622    2.4472    0.0000 C.3     1  UNL1       -0.0620
     30 C           3.7702    2.4819    0.0000 C.3     1  UNL1        0.1403
     31 C           3.7702    0.4126    0.0000 C.2     1  UNL1        0.0252
     32 C           4.6641    2.9472    0.0000 C.3     1  UNL1       -0.0520
     33 C           9.5516    1.4364    0.0000 C.2     1  UNL1        0.3071
     34 C           2.8641    0.9264    0.0000 C.2     1  UNL1        0.3326
     35 C           5.3653   -2.6879    0.0000 C.2     1  UNL1        0.3104
     36 C           3.7817    3.4818    0.0000 C.ar    1  UNL1        0.0313
     37 C           9.9326   -2.0877    0.0000 C.2     1  UNL1        0.3103
     38 C           4.6340   -3.3699    0.0000 C.3     1  UNL1        0.0534
     39 C          10.5166   -2.8995    0.0000 C.3     1  UNL1        0.0534
     40 C           4.5975    4.0602    0.0000 C.ar    1  UNL1       -0.0172
     41 C           2.9796    4.0789    0.0000 C.ar    1  UNL1        0.0984
     42 C           4.8590   -4.3443    0.0000 C.3     1  UNL1       -0.0432
     43 C           3.6776   -3.0776    0.0000 C.3     1  UNL1       -0.0523
     44 C          11.5116   -2.7997    0.0000 C.3     1  UNL1       -0.0432
     45 C           4.2995    5.0148    0.0000 C.ar    1  UNL1        0.0921
     46 C          10.1055   -3.8111    0.0000 C.3     1  UNL1       -0.0523
     47 C          10.9418    2.4694    0.0000 C.3     1  UNL1        0.0817
     48 C           4.1276   -5.0263    0.0000 C.3     1  UNL1       -0.0645
     49 C          12.0955   -3.6114    0.0000 C.3     1  UNL1       -0.0645
     50 H           7.3212    0.8709    0.0000 H       1  UNL1        0.0360
     51 H           6.9629    1.1987    0.0000 H       1  UNL1        0.0340
     52 H           5.2787   -0.8503    0.0000 H       1  UNL1        0.0799
     53 H           7.7905    0.9003    0.0000 H       1  UNL1        0.0317
     54 H           8.9704   -1.3127    0.0000 H       1  UNL1        0.0772
     55 H           6.9331    1.6372    0.0000 H       1  UNL1        0.0302
     56 H           5.9286    2.9222    0.0000 H       1  UNL1        0.0278
     57 H           5.1316    2.9222    0.0000 H       1  UNL1        0.0278
     58 H           8.5948    1.9401    0.0000 H       1  UNL1        0.0380
     59 H           7.9551    1.4647    0.0000 H       1  UNL1        0.0380
     60 H           6.5272   -2.0291    0.0000 H       1  UNL1        0.2129
     61 H           9.9488   -0.3405    0.0000 H       1  UNL1        0.0236
     62 H          10.0834    0.5260    0.0000 H       1  UNL1        0.0236
     63 H           9.2170    0.6605    0.0000 H       1  UNL1        0.0236
     64 H           9.4399   -1.4013    0.0000 H       1  UNL1        0.0236
     65 H          10.2575   -1.0847    0.0000 H       1  UNL1        0.0236
     66 H           9.9409   -0.2670    0.0000 H       1  UNL1        0.0236
     67 H           7.7261   -2.8323    0.0000 H       1  UNL1        0.2107
     68 H           7.5722    1.9103    0.0000 H       1  UNL1        0.0233
     69 H           7.7991    2.7572    0.0000 H       1  UNL1        0.0233
     70 H           6.9522    2.9842    0.0000 H       1  UNL1        0.0233
     71 H           3.2362    2.7970    0.0000 H       1  UNL1        0.0795
     72 H           3.7773   -0.2074    0.0000 H       1  UNL1        0.0689
     73 H           5.2841    2.9472    0.0000 H       1  UNL1        0.0239
     74 H           4.6641    3.5672    0.0000 H       1  UNL1        0.0239
     75 H           4.0441    2.9472    0.0000 H       1  UNL1        0.0239
     76 H           4.1806   -3.7928    0.0000 H       1  UNL1        0.0410
     77 H          10.8786   -3.4028    0.0000 H       1  UNL1        0.0410
     78 H           5.1849    3.8618    0.0000 H       1  UNL1        0.0653
     79 H           2.3877    3.8942    0.0000 H       1  UNL1        0.1033
     80 H           5.1967   -4.8643    0.0000 H       1  UNL1        0.0270
     81 H           5.4297   -4.1020    0.0000 H       1  UNL1        0.0270
     82 H           3.8589   -2.4847    0.0000 H       1  UNL1        0.0238
     83 H           3.0847   -2.8964    0.0000 H       1  UNL1        0.0238
     84 H           3.4964   -3.6705    0.0000 H       1  UNL1        0.0238
     85 H          12.0701   -2.5305    0.0000 H       1  UNL1        0.0270
     86 H          11.3435   -2.2029    0.0000 H       1  UNL1        0.0270
     87 H           4.6697    5.5121    0.0000 H       1  UNL1        0.1029
     88 H           9.5403   -3.5562    0.0000 H       1  UNL1        0.0238
     89 H           9.8507   -4.3763    0.0000 H       1  UNL1        0.0238
     90 H          10.6707   -4.0660    0.0000 H       1  UNL1        0.0238
     91 H          11.0132    1.8535    0.0000 H       1  UNL1        0.0661
     92 H          11.5577    2.5408    0.0000 H       1  UNL1        0.0661
     93 H          10.8704    3.0852    0.0000 H       1  UNL1        0.0661
     94 H           3.7048   -4.5729    0.0000 H       1  UNL1        0.0230
     95 H           3.6742   -5.4492    0.0000 H       1  UNL1        0.0230
     96 H           4.5505   -5.4798    0.0000 H       1  UNL1        0.0230
     97 H          11.5922   -3.9735    0.0000 H       1  UNL1        0.0230
     98 H          12.4576   -4.1147    0.0000 H       1  UNL1        0.0230
     99 H          12.5988   -3.2494    0.0000 H       1  UNL1        0.0230
@<TRIPOS>BOND
     1     1    13    1
     2     1    16    1
     3     2    16    1
     4     2    60    1
     5     3    17    1
     6     3    67    1
     7     4    18    1
     8     4    35    1
     9     5    21    1
    10     5    37    1
    11     6    30    1
    12     6    34    1
    13     7    33    1
    14     7    47    1
    15     8    33    2
    16     9    34    2
    17    10    35    2
    18    11    37    2
    19    12    41   ar
    20    12    45   ar
    21    13    15    1
    22    13    18    1
    23    13    23    1
    24    14    15    1
    25    14    16    1
    26    14    19    1
    27    14    50    1
    28    15    22    1
    29    15    51    1
    30    16    17    1
    31    17    18    1
    32    17    21    1
    33    18    52    1
    34    19    20    1
    35    19    26    1
    36    19    53    1
    37    20    21    1
    38    20    27    1
    39    20    28    1
    40    21    54    1
    41    22    25    1
    42    22    29    1
    43    22    55    1
    44    23    24    1
    45    23    31    2
    46    24    25    1
    47    24    30    1
    48    24    32    1
    49    25    56    1
    50    25    57    1
    51    26    33    1
    52    26    58    1
    53    26    59    1
    54    27    61    1
    55    27    62    1
    56    27    63    1
    57    28    64    1
    58    28    65    1
    59    28    66    1
    60    29    68    1
    61    29    69    1
    62    29    70    1
    63    30    36    1
    64    30    71    1
    65    31    34    1
    66    31    72    1
    67    32    73    1
    68    32    74    1
    69    32    75    1
    70    35    38    1
    71    36    40   ar
    72    36    41   ar
    73    37    39    1
    74    38    42    1
    75    38    43    1
    76    38    76    1
    77    39    44    1
    78    39    46    1
    79    39    77    1
    80    40    45   ar
    81    40    78    1
    82    41    79    1
    83    42    48    1
    84    42    80    1
    85    42    81    1
    86    43    82    1
    87    43    83    1
    88    43    84    1
    89    44    49    1
    90    44    85    1
    91    44    86    1
    92    45    87    1
    93    46    88    1
    94    46    89    1
    95    46    90    1
    96    47    91    1
    97    47    92    1
    98    47    93    1
    99    48    94    1
   100    48    95    1
   101    48    96    1
   102    49    97    1
   103    49    98    1
   104    49    99    1
