@<TRIPOS>MOLECULE
IMPHY014025
 60 60 0 0 0
SMALL
GASTEIGER

@<TRIPOS>ATOM
      1 CL          9.4651    5.1200    0.0000 Cl      1  UNL1       -0.1454
      2 S           2.5981    5.6200    0.0000 S.3     2  UNL2       -0.1275
      3 O           0.0000    7.1200    0.0000 O.3     2  UNL2       -0.3947
      4 O           2.5981    8.6200    0.0000 O.2     2  UNL2       -0.2920
      5 O           3.4641    5.1200    0.0000 O.2     2  UNL2       -0.2790
      6 N           2.5981    3.6200    0.0000 N.am    2  UNL2       -0.2727
      7 N           4.3301    0.6200    0.0000 N.ar    2  UNL2       -0.2177
      8 N           5.1962    2.1200    0.0000 N.ar    2  UNL2       -0.2401
      9 N           2.5981    0.6200    0.0000 N.pl3   2  UNL2       -0.3428
     10 C           1.7320    4.1200    0.0000 C.2     2  UNL2        0.0199
     11 C           1.7320    5.1200    0.0000 C.2     2  UNL2        0.0046
     12 C           2.5981    2.6200    0.0000 C.3     2  UNL2        0.0490
     13 C           0.8660    5.6200    0.0000 C.3     2  UNL2        0.0030
     14 C           2.5981    6.6200    0.0000 C.3     2  UNL2        0.0051
     15 C           3.4641    7.1200    0.0000 C.3     2  UNL2        0.0198
     16 C           3.4641    2.1200    0.0000 C.ar    2  UNL2        0.0278
     17 C           0.8660    3.6200    0.0000 C.3     2  UNL2       -0.0255
     18 C           0.8660    6.6200    0.0000 C.3     2  UNL2        0.0487
     19 C           3.4641    8.1200    0.0000 C.2     2  UNL2        0.1639
     20 C           4.3301    8.6200    0.0000 C.ar    2  UNL2        0.0174
     21 C           3.4641    1.1200    0.0000 C.ar    2  UNL2        0.1244
     22 C           3.4641    4.1200    0.0000 C.2     2  UNL2        0.2068
     23 C           4.3301    2.6200    0.0000 C.ar    2  UNL2        0.0376
     24 C           4.3301    9.6200    0.0000 C.ar    2  UNL2       -0.0510
     25 C           5.1962    8.1200    0.0000 C.ar    2  UNL2       -0.0510
     26 C           6.0622    9.6200    0.0000 C.ar    2  UNL2       -0.0504
     27 C           5.1962   10.1200    0.0000 C.ar    2  UNL2       -0.0582
     28 C           6.0622    8.6200    0.0000 C.ar    2  UNL2       -0.0582
     29 C           5.1962    1.1200    0.0000 C.ar    2  UNL2        0.1280
     30 C           6.9282   10.1200    0.0000 C.3     2  UNL2       -0.0397
     31 C           6.0622    0.6200    0.0000 C.3     2  UNL2       -0.0046
     32 H           1.9875    2.7277    0.0000 H       2  UNL2        0.0519
     33 H           2.3860    2.0374    0.0000 H       2  UNL2        0.0519
     34 H           0.2554    5.7277    0.0000 H       2  UNL2        0.0341
     35 H           0.6540    5.0374    0.0000 H       2  UNL2        0.0341
     36 H           2.3860    7.2026    0.0000 H       2  UNL2        0.0384
     37 H           1.9875    6.5123    0.0000 H       2  UNL2        0.0384
     38 H           3.6762    6.5374    0.0000 H       2  UNL2        0.0353
     39 H           4.0747    7.2277    0.0000 H       2  UNL2        0.0353
     40 H           0.5560    4.1569    0.0000 H       2  UNL2        0.0290
     41 H           0.3291    3.3100    0.0000 H       2  UNL2        0.0290
     42 H           1.1760    3.0831    0.0000 H       2  UNL2        0.0290
     43 H           1.4766    6.5123    0.0000 H       2  UNL2        0.0560
     44 H           1.0781    7.2026    0.0000 H       2  UNL2        0.0560
     45 H           4.0010    3.8100    0.0000 H       2  UNL2        0.1257
     46 H           4.3301    3.2400    0.0000 H       2  UNL2        0.0834
     47 H           3.7932    9.9300    0.0000 H       2  UNL2        0.0625
     48 H           5.1962    7.5000    0.0000 H       2  UNL2        0.0625
     49 H           5.1962   10.7400    0.0000 H       2  UNL2        0.0620
     50 H           6.5991    8.3100    0.0000 H       2  UNL2        0.0620
     51 H           0.0000    7.7400    0.0000 H       2  UNL2        0.2094
     52 H           2.5981    0.0000    0.0000 H       2  UNL2        0.1437
     53 H           2.0611    0.9300    0.0000 H       2  UNL2        0.1437
     54 H           7.2382    9.5831    0.0000 H       2  UNL2        0.0278
     55 H           7.4651   10.4300    0.0000 H       2  UNL2        0.0278
     56 H           6.6182   10.6569    0.0000 H       2  UNL2        0.0278
     57 H           5.7522    0.0831    0.0000 H       2  UNL2        0.0308
     58 H           6.5991    0.3100    0.0000 H       2  UNL2        0.0308
     59 H           6.3722    1.1569    0.0000 H       2  UNL2        0.0308
     60 H          10.4651    5.1200    0.0000 H       1  UNL1        0.1454
@<TRIPOS>BOND
     1     1    60    1
     2     2    11    1
     3     2    14    1
     4     3    18    1
     5     3    51    1
     6     4    19    2
     7     5    22    2
     8     6    10    1
     9     6    12    1
    10     6    22   am
    11     7    21   ar
    12     7    29   ar
    13     8    23   ar
    14     8    29   ar
    15     9    21    1
    16     9    52    1
    17     9    53    1
    18    10    11    2
    19    10    17    1
    20    11    13    1
    21    12    16    1
    22    12    32    1
    23    12    33    1
    24    13    18    1
    25    13    34    1
    26    13    35    1
    27    14    15    1
    28    14    36    1
    29    14    37    1
    30    15    19    1
    31    15    38    1
    32    15    39    1
    33    16    21   ar
    34    16    23   ar
    35    17    40    1
    36    17    41    1
    37    17    42    1
    38    18    43    1
    39    18    44    1
    40    19    20    1
    41    20    24   ar
    42    20    25   ar
    43    22    45    1
    44    23    46    1
    45    24    27   ar
    46    24    47    1
    47    25    28   ar
    48    25    48    1
    49    26    27   ar
    50    26    28   ar
    51    26    30    1
    52    27    49    1
    53    28    50    1
    54    29    31    1
    55    30    54    1
    56    30    55    1
    57    30    56    1
    58    31    57    1
    59    31    58    1
    60    31    59    1
