@<TRIPOS>MOLECULE
IMPHY000380
 200 210 0 0 0
SMALL
GASTEIGER

@<TRIPOS>ATOM
      1 O           9.5620   -2.0308    0.0000 O.3     1  UNL1       -0.3915
      2 O           6.8671   -4.6928    0.0000 O.3     1  UNL1       -0.3423
      3 O           5.0597   -3.6400    0.0000 O.3     1  UNL1       -0.3892
      4 O           9.3112   -4.0011    0.0000 O.3     1  UNL1       -0.3944
      5 O           8.6209    4.5866    0.0000 O.3     1  UNL1       -0.4318
      6 O           9.5042    3.0968    0.0000 O.2     1  UNL1       -0.2501
      7 O           5.1350   -4.6928    0.0000 O.3     1  UNL1       -0.3405
      8 O           6.8671   -6.6928    0.0000 O.3     1  UNL1       -0.3841
      9 O           9.4695    6.0966    0.0000 O.3     1  UNL1       -0.3368
     10 O           5.1350   -7.6928    0.0000 O.3     1  UNL1       -0.3864
     11 O           3.4030   -6.6928    0.0000 O.3     1  UNL1       -0.3865
     12 O          10.3644    3.6068    0.0000 O.3     1  UNL1       -0.3366
     13 O          12.0847    4.6267    0.0000 O.3     1  UNL1       -0.3864
     14 O           2.5369   -5.1928    0.0000 O.3     1  UNL1       -0.3924
     15 O          12.0616    6.6266    0.0000 O.3     1  UNL1       -0.3869
     16 O          12.0963    3.6268    0.0000 O.3     1  UNL1       -0.3431
     17 O          10.3875    1.6069    0.0000 O.3     1  UNL1       -0.3841
     18 O          12.1310    0.6270    0.0000 O.3     1  UNL1       -0.3864
     19 O          13.8514    1.6469    0.0000 O.3     1  UNL1       -0.3402
     20 O          14.7000    3.1568    0.0000 O.3     1  UNL1       -0.3460
     21 O          15.5949    0.6670    0.0000 O.3     1  UNL1       -0.3841
     22 O          17.3152    1.6870    0.0000 O.3     1  UNL1       -0.3401
     23 O          17.2921    3.6869    0.0000 O.3     1  UNL1       -0.3405
     24 O          16.4666    0.1771    0.0000 O.3     1  UNL1       -0.3431
     25 O          16.4088    5.1768    0.0000 O.3     1  UNL1       -0.3405
     26 O          19.0587    0.7071    0.0000 O.3     1  UNL1       -0.3841
     27 O          19.0125    4.7068    0.0000 O.3     1  UNL1       -0.3841
     28 O          19.0819   -1.2928    0.0000 O.3     1  UNL1       -0.3864
     29 O          17.3615   -2.3127    0.0000 O.3     1  UNL1       -0.3866
     30 O          18.9894    6.7067    0.0000 O.3     1  UNL1       -0.3864
     31 O          17.2459    7.6866    0.0000 O.3     1  UNL1       -0.3865
     32 O          15.5139    7.6666    0.0000 O.3     1  UNL1       -0.3924
     33 C           7.7681    0.0074    0.0000 C.3     1  UNL1       -0.0170
     34 C           6.8920   -1.5375    0.0000 C.3     1  UNL1       -0.0202
     35 C           6.9040   -0.4959    0.0000 C.3     1  UNL1       -0.0255
     36 C           7.7643    1.0074    0.0000 C.3     1  UNL1       -0.0050
     37 C           7.7920   -2.0617    0.0000 C.3     1  UNL1        0.0007
     38 C           8.6801   -0.4959    0.0000 C.3     1  UNL1       -0.0201
     39 C           8.6921   -1.5375    0.0000 C.3     1  UNL1        0.0597
     40 C           7.8046   -3.1467    0.0000 C.3     1  UNL1        0.0254
     41 C           6.8963    1.5041    0.0000 C.2     1  UNL1       -0.0629
     42 C           5.9421   -2.0617    0.0000 C.3     1  UNL1       -0.0183
     43 C           6.0361    0.0008    0.0000 C.3     1  UNL1       -0.0306
     44 C           6.8762    2.5455    0.0000 C.3     1  UNL1       -0.0031
     45 C           8.6723    1.5178    0.0000 C.3     1  UNL1       -0.0424
     46 C           7.7722    3.0767    0.0000 C.3     1  UNL1        0.0744
     47 C           6.8671   -3.6928    0.0000 C.3     1  UNL1        0.0954
     48 C           8.7522    0.1849    0.0000 C.3     1  UNL1       -0.0584
     49 C           5.9295   -3.1467    0.0000 C.3     1  UNL1        0.0825
     50 C           8.6763    2.5594    0.0000 C.3     1  UNL1       -0.0359
     51 C           6.0279   -1.0341    0.0000 C.3     1  UNL1       -0.0588
     52 C           6.0322    1.0008    0.0000 C.2     1  UNL1       -0.0836
     53 C           8.7497    0.8376    0.0000 C.3     1  UNL1       -0.0553
     54 C           5.9223    3.0625    0.0000 C.3     1  UNL1       -0.0403
     55 C           7.7764    4.1617    0.0000 C.3     1  UNL1       -0.0362
     56 C           8.3113   -4.0088    0.0000 C.3     1  UNL1        0.0524
     57 C           5.9014    4.1473    0.0000 C.3     1  UNL1       -0.0343
     58 C           8.8046   -3.1390    0.0000 C.3     1  UNL1       -0.0547
     59 C           6.8347    4.7006    0.0000 C.3     1  UNL1       -0.0468
     60 C           8.6324    3.5867    0.0000 C.2     1  UNL1        0.3161
     61 C           5.3881    5.0055    0.0000 C.3     1  UNL1       -0.0598
     62 C           4.9015    4.1318    0.0000 C.3     1  UNL1       -0.0598
     63 C           6.0010   -5.1928    0.0000 C.3     1  UNL1        0.1883
     64 C           6.0010   -6.1928    0.0000 C.3     1  UNL1        0.1341
     65 C           9.4810    5.0966    0.0000 C.3     1  UNL1        0.2338
     66 C           5.1350   -6.6928    0.0000 C.3     1  UNL1        0.1141
     67 C           4.2690   -5.1928    0.0000 C.3     1  UNL1        0.1130
     68 C           4.2690   -6.1928    0.0000 C.3     1  UNL1        0.1119
     69 C          10.3528    4.6067    0.0000 C.3     1  UNL1        0.1520
     70 C          11.2130    5.1167    0.0000 C.3     1  UNL1        0.1152
     71 C           3.4030   -4.6928    0.0000 C.3     1  UNL1        0.0730
     72 C          10.3297    6.6066    0.0000 C.3     1  UNL1        0.0802
     73 C          11.2014    6.1166    0.0000 C.3     1  UNL1        0.1070
     74 C          11.2361    3.1168    0.0000 C.3     1  UNL1        0.1885
     75 C          11.2477    2.1169    0.0000 C.3     1  UNL1        0.1341
     76 C          12.1194    1.6269    0.0000 C.3     1  UNL1        0.1143
     77 C          12.9681    3.1368    0.0000 C.3     1  UNL1        0.0877
     78 C          12.9796    2.1369    0.0000 C.3     1  UNL1        0.1160
     79 C          13.8282    3.6468    0.0000 C.3     1  UNL1       -0.0361
     80 C          14.7115    2.1569    0.0000 C.3     1  UNL1        0.1880
     81 C          15.5833    1.6670    0.0000 C.3     1  UNL1        0.1345
     82 C          16.4435    2.1770    0.0000 C.3     1  UNL1        0.1206
     83 C          16.4319    3.1769    0.0000 C.3     1  UNL1        0.1138
     84 C          15.5602    3.6668    0.0000 C.3     1  UNL1        0.0796
     85 C          17.3268    0.6871    0.0000 C.3     1  UNL1        0.1883
     86 C          17.2805    4.6868    0.0000 C.3     1  UNL1        0.1884
     87 C          18.1985    0.1971    0.0000 C.3     1  UNL1        0.1341
     88 C          18.1407    5.1968    0.0000 C.3     1  UNL1        0.1341
     89 C          18.2101   -0.8028    0.0000 C.3     1  UNL1        0.1140
     90 C          16.4782   -0.8229    0.0000 C.3     1  UNL1        0.0873
     91 C          17.3499   -1.3128    0.0000 C.3     1  UNL1        0.1095
     92 C          18.1292    6.1967    0.0000 C.3     1  UNL1        0.1141
     93 C          16.3972    6.1767    0.0000 C.3     1  UNL1        0.1130
     94 C          17.2574    6.6867    0.0000 C.3     1  UNL1        0.1119
     95 C          15.6180   -1.3328    0.0000 C.3     1  UNL1       -0.0361
     96 C          15.5255    6.6666    0.0000 C.3     1  UNL1        0.0730
     97 H           7.6385   -0.9237    0.0000 H       1  UNL1        0.0315
     98 H           8.5314   -2.4811    0.0000 H       1  UNL1        0.0338
     99 H           9.2921   -0.5949    0.0000 H       1  UNL1        0.0296
    100 H           8.8824    0.0902    0.0000 H       1  UNL1        0.0296
    101 H           9.2260   -1.2223    0.0000 H       1  UNL1        0.0596
    102 H           5.7398   -1.4757    0.0000 H       1  UNL1        0.0296
    103 H           5.3300   -2.1608    0.0000 H       1  UNL1        0.0296
    104 H           5.4251    0.1061    0.0000 H       1  UNL1        0.0310
    105 H           5.8263   -0.5827    0.0000 H       1  UNL1        0.0310
    106 H           6.1502    2.1036    0.0000 H       1  UNL1        0.0357
    107 H           8.8791    0.9333    0.0000 H       1  UNL1        0.0274
    108 H           9.2836    1.6215    0.0000 H       1  UNL1        0.0274
    109 H           7.4046   -4.0018    0.0000 H       1  UNL1        0.0629
    110 H           8.8623   -0.4253    0.0000 H       1  UNL1        0.0235
    111 H           9.3624    0.2949    0.0000 H       1  UNL1        0.0235
    112 H           8.6422    0.7950    0.0000 H       1  UNL1        0.0235
    113 H           5.3956   -2.8315    0.0000 H       1  UNL1        0.0619
    114 H           9.2868    2.4510    0.0000 H       1  UNL1        0.0276
    115 H           8.8876    3.1423    0.0000 H       1  UNL1        0.0276
    116 H           6.3400   -0.4984    0.0000 H       1  UNL1        0.0235
    117 H           5.4922   -0.7221    0.0000 H       1  UNL1        0.0235
    118 H           5.7158   -1.5699    0.0000 H       1  UNL1        0.0235
    119 H           5.4941    1.3087    0.0000 H       1  UNL1        0.0572
    120 H           8.6444    0.2266    0.0000 H       1  UNL1        0.0238
    121 H           9.3607    0.7323    0.0000 H       1  UNL1        0.0238
    122 H           8.8550    1.4486    0.0000 H       1  UNL1        0.0238
    123 H           5.3095    3.1568    0.0000 H       1  UNL1        0.0276
    124 H           5.7246    2.4749    0.0000 H       1  UNL1        0.0276
    125 H           8.3869    4.0533    0.0000 H       1  UNL1        0.0276
    126 H           7.9877    4.7446    0.0000 H       1  UNL1        0.0276
    127 H           7.7303   -4.2254    0.0000 H       1  UNL1        0.0563
    128 H           8.4236   -4.6185    0.0000 H       1  UNL1        0.0563
    129 H           8.8094   -3.7589    0.0000 H       1  UNL1        0.0237
    130 H           9.4246   -3.1342    0.0000 H       1  UNL1        0.0237
    131 H           8.7998   -2.5190    0.0000 H       1  UNL1        0.0237
    132 H           7.2302    5.1781    0.0000 H       1  UNL1        0.0271
    133 H           6.4319    5.1719    0.0000 H       1  UNL1        0.0271
    134 H          10.0965   -1.7166    0.0000 H       1  UNL1        0.2098
    135 H           4.5251   -3.3258    0.0000 H       1  UNL1        0.2099
    136 H           4.8920    4.7518    0.0000 H       1  UNL1        0.0235
    137 H           4.2816    4.1223    0.0000 H       1  UNL1        0.0235
    138 H           4.9111    3.5119    0.0000 H       1  UNL1        0.0235
    139 H           5.9202    5.3237    0.0000 H       1  UNL1        0.0235
    140 H           5.0699    5.5376    0.0000 H       1  UNL1        0.0235
    141 H           4.8560    4.6872    0.0000 H       1  UNL1        0.0235
    142 H           6.0010   -4.5728    0.0000 H       1  UNL1        0.0938
    143 H           9.6254   -4.5356    0.0000 H       1  UNL1        0.2094
    144 H           6.0010   -6.8128    0.0000 H       1  UNL1        0.0671
    145 H           9.4882    4.4767    0.0000 H       1  UNL1        0.1085
    146 H           4.5981   -7.0028    0.0000 H       1  UNL1        0.0648
    147 H           4.2690   -4.5728    0.0000 H       1  UNL1        0.0647
    148 H           3.7320   -5.8828    0.0000 H       1  UNL1        0.0647
    149 H          10.8933    4.3029    0.0000 H       1  UNL1        0.0687
    150 H           6.8671   -7.3128    0.0000 H       1  UNL1        0.2101
    151 H          11.7463    5.4328    0.0000 H       1  UNL1        0.0648
    152 H           3.8015   -4.2178    0.0000 H       1  UNL1        0.0584
    153 H           3.0044   -4.2178    0.0000 H       1  UNL1        0.0584
    154 H           4.5981   -8.0028    0.0000 H       1  UNL1        0.2100
    155 H          10.7227    7.0861    0.0000 H       1  UNL1        0.0588
    156 H           9.9257    7.0769    0.0000 H       1  UNL1        0.0588
    157 H          11.1943    6.7366    0.0000 H       1  UNL1        0.0643
    158 H           3.4030   -7.3128    0.0000 H       1  UNL1        0.2100
    159 H          10.7028    2.8006    0.0000 H       1  UNL1        0.0938
    160 H          12.6181    4.9429    0.0000 H       1  UNL1        0.2100
    161 H           2.0000   -4.8828    0.0000 H       1  UNL1        0.2095
    162 H          12.0544    7.2465    0.0000 H       1  UNL1        0.2100
    163 H          12.1977    1.8131    0.0000 H       1  UNL1        0.0671
    164 H          12.6599    1.3231    0.0000 H       1  UNL1        0.0648
    165 H          12.9609    3.7568    0.0000 H       1  UNL1        0.0621
    166 H          13.5129    2.4531    0.0000 H       1  UNL1        0.0650
    167 H          10.3947    0.9869    0.0000 H       1  UNL1        0.2101
    168 H          14.1444    3.1135    0.0000 H       1  UNL1        0.0255
    169 H          14.3616    3.9630    0.0000 H       1  UNL1        0.0255
    170 H          13.5120    4.1801    0.0000 H       1  UNL1        0.0255
    171 H          12.6715    0.3232    0.0000 H       1  UNL1        0.2100
    172 H          14.7187    1.5370    0.0000 H       1  UNL1        0.0937
    173 H          16.1238    1.3632    0.0000 H       1  UNL1        0.0671
    174 H          16.9768    2.4931    0.0000 H       1  UNL1        0.0651
    175 H          16.4248    3.7968    0.0000 H       1  UNL1        0.0647
    176 H          15.9532    4.1464    0.0000 H       1  UNL1        0.0587
    177 H          15.1562    4.1371    0.0000 H       1  UNL1        0.0587
    178 H          15.0615    0.3508    0.0000 H       1  UNL1        0.2101
    179 H          16.7863    0.9908    0.0000 H       1  UNL1        0.0938
    180 H          16.7472    4.3706    0.0000 H       1  UNL1        0.0938
    181 H          18.7390   -0.1067    0.0000 H       1  UNL1        0.0671
    182 H          18.1479    4.5768    0.0000 H       1  UNL1        0.0671
    183 H          18.2173   -1.4228    0.0000 H       1  UNL1        0.0648
    184 H          15.9377   -0.5191    0.0000 H       1  UNL1        0.0621
    185 H          16.8166   -1.6290    0.0000 H       1  UNL1        0.0646
    186 H          18.6696    5.8929    0.0000 H       1  UNL1        0.0648
    187 H          15.8639    5.8605    0.0000 H       1  UNL1        0.0647
    188 H          16.7169    6.9904    0.0000 H       1  UNL1        0.0647
    189 H          19.5992    0.4033    0.0000 H       1  UNL1        0.2101
    190 H          15.3018   -0.7995    0.0000 H       1  UNL1        0.0255
    191 H          15.0847   -1.6490    0.0000 H       1  UNL1        0.0255
    192 H          15.9342   -1.8662    0.0000 H       1  UNL1        0.0255
    193 H          19.5458    5.0230    0.0000 H       1  UNL1        0.2101
    194 H          14.9137    6.7672    0.0000 H       1  UNL1        0.0584
    195 H          15.3202    6.0816    0.0000 H       1  UNL1        0.0584
    196 H          19.0890   -1.9127    0.0000 H       1  UNL1        0.2100
    197 H          17.9020   -2.6165    0.0000 H       1  UNL1        0.2100
    198 H          18.9822    7.3266    0.0000 H       1  UNL1        0.2100
    199 H          17.7792    8.0028    0.0000 H       1  UNL1        0.2100
    200 H          14.9734    7.9703    0.0000 H       1  UNL1        0.2095
@<TRIPOS>BOND
     1    39     1    1
     2     1   134    1
     3    47     2    1
     4    63     2    1
     5    49     3    1
     6     3   135    1
     7     4    56    1
     8     4   143    1
     9     5    60    1
    10    65     5    1
    11     6    60    2
    12     7    63    1
    13     7    67    1
    14    64     8    1
    15     8   150    1
    16     9    65    1
    17     9    72    1
    18    66    10    1
    19    10   154    1
    20    68    11    1
    21    11   158    1
    22    69    12    1
    23    74    12    1
    24    70    13    1
    25    13   160    1
    26    14    71    1
    27    14   161    1
    28    73    15    1
    29    15   162    1
    30    16    74    1
    31    16    77    1
    32    75    17    1
    33    17   167    1
    34    76    18    1
    35    18   171    1
    36    78    19    1
    37    80    19    1
    38    20    80    1
    39    20    84    1
    40    81    21    1
    41    21   178    1
    42    82    22    1
    43    85    22    1
    44    83    23    1
    45    86    23    1
    46    24    85    1
    47    24    90    1
    48    25    86    1
    49    25    93    1
    50    87    26    1
    51    26   189    1
    52    88    27    1
    53    27   193    1
    54    89    28    1
    55    28   196    1
    56    91    29    1
    57    29   197    1
    58    92    30    1
    59    30   198    1
    60    94    31    1
    61    31   199    1
    62    32    96    1
    63    32   200    1
    64    33    35    1
    65    33    36    1
    66    33    38    1
    67    33    48    1
    68    34    35    1
    69    34    37    1
    70    34    42    1
    71    34    51    1
    72    35    43    1
    73    35    97    1
    74    36    41    1
    75    36    45    1
    76    36    53    1
    77    37    39    1
    78    37    40    1
    79    37    98    1
    80    38    39    1
    81    38    99    1
    82    38   100    1
    83    39   101    1
    84    40    47    1
    85    40    56    1
    86    40    58    1
    87    41    44    1
    88    41    52    2
    89    42    49    1
    90    42   102    1
    91    42   103    1
    92    43    52    1
    93    43   104    1
    94    43   105    1
    95    44    46    1
    96    44    54    1
    97    44   106    1
    98    45    50    1
    99    45   107    1
   100    45   108    1
   101    46    50    1
   102    46    55    1
   103    46    60    1
   104    47    49    1
   105    47   109    1
   106    48   110    1
   107    48   111    1
   108    48   112    1
   109    49   113    1
   110    50   114    1
   111    50   115    1
   112    51   116    1
   113    51   117    1
   114    51   118    1
   115    52   119    1
   116    53   120    1
   117    53   121    1
   118    53   122    1
   119    54    57    1
   120    54   123    1
   121    54   124    1
   122    55    59    1
   123    55   125    1
   124    55   126    1
   125    56   127    1
   126    56   128    1
   127    57    59    1
   128    57    61    1
   129    57    62    1
   130    58   129    1
   131    58   130    1
   132    58   131    1
   133    59   132    1
   134    59   133    1
   135    61   139    1
   136    61   140    1
   137    61   141    1
   138    62   136    1
   139    62   137    1
   140    62   138    1
   141    63    64    1
   142    63   142    1
   143    64    66    1
   144    64   144    1
   145    65    69    1
   146    65   145    1
   147    66    68    1
   148    66   146    1
   149    67    68    1
   150    67    71    1
   151    67   147    1
   152    68   148    1
   153    69    70    1
   154    69   149    1
   155    70    73    1
   156    70   151    1
   157    71   152    1
   158    71   153    1
   159    72    73    1
   160    72   155    1
   161    72   156    1
   162    73   157    1
   163    74    75    1
   164    74   159    1
   165    75    76    1
   166    75   163    1
   167    76    78    1
   168    76   164    1
   169    77    78    1
   170    77    79    1
   171    77   165    1
   172    78   166    1
   173    79   168    1
   174    79   169    1
   175    79   170    1
   176    80    81    1
   177    80   172    1
   178    81    82    1
   179    81   173    1
   180    82    83    1
   181    82   174    1
   182    83    84    1
   183    83   175    1
   184    84   176    1
   185    84   177    1
   186    85    87    1
   187    85   179    1
   188    86    88    1
   189    86   180    1
   190    87    89    1
   191    87   181    1
   192    88    92    1
   193    88   182    1
   194    89    91    1
   195    89   183    1
   196    90    91    1
   197    90    95    1
   198    90   184    1
   199    91   185    1
   200    92    94    1
   201    92   186    1
   202    93    94    1
   203    93    96    1
   204    93   187    1
   205    94   188    1
   206    95   190    1
   207    95   191    1
   208    95   192    1
   209    96   194    1
   210    96   195    1
