@<TRIPOS>MOLECULE
IMPHY000690
 14 14 0 0 0
SMALL
GASTEIGER

@<TRIPOS>ATOM
      1 S           5.0981   -1.6830    0.0000 S.3     1  UNL1       -0.1554
      2 N           2.0000    1.6830    0.0000 N.1     1  UNL1       -0.1966
      3 C           4.5981   -0.8170    0.0000 C.3     1  UNL1        0.0152
      4 C           5.5981   -0.8170    0.0000 C.3     1  UNL1        0.0059
      5 C           3.7320   -0.3170    0.0000 C.3     1  UNL1       -0.0276
      6 C           3.7320    0.6830    0.0000 C.3     1  UNL1        0.0358
      7 C           2.8660    1.1830    0.0000 C.1     1  UNL1        0.0625
      8 H           3.9970   -1.4180    0.0000 H       1  UNL1        0.0420
      9 H           6.1807   -1.0290    0.0000 H       1  UNL1        0.0387
     10 H           5.7057   -0.2064    0.0000 H       1  UNL1        0.0387
     11 H           3.1215   -0.2093    0.0000 H       1  UNL1        0.0286
     12 H           3.5200   -0.8996    0.0000 H       1  UNL1        0.0286
     13 H           4.3426    0.5754    0.0000 H       1  UNL1        0.0418
     14 H           3.9441    1.2656    0.0000 H       1  UNL1        0.0418
@<TRIPOS>BOND
     1     1     3    1
     2     1     4    1
     3     2     7    3
     4     3     4    1
     5     3     5    1
     6     3     8    1
     7     4     9    1
     8     4    10    1
     9     5     6    1
    10     5    11    1
    11     5    12    1
    12     6     7    1
    13     6    13    1
    14     6    14    1
