@<TRIPOS>MOLECULE
IMPHY010132
 29 31 0 0 0
SMALL
GASTEIGER

@<TRIPOS>ATOM
      1 O           6.4144    2.0346    0.0000 O.3     1  UNL1       -0.5060
      2 O           4.6660   -2.0000    0.0000 O.2     1  UNL1       -0.2865
      3 O           4.6660    2.0000    0.0000 O.2     1  UNL1       -0.2865
      4 O           2.9176   -2.0346    0.0000 O.3     1  UNL1       -0.5060
      5 C           5.5321   -0.5000    0.0000 C.ar    1  UNL1        0.0370
      6 C           5.5321    0.5000    0.0000 C.ar    1  UNL1        0.0744
      7 C           3.8000   -0.5000    0.0000 C.ar    1  UNL1        0.0744
      8 C           3.8000    0.5000    0.0000 C.ar    1  UNL1        0.0367
      9 C           4.6660   -1.0000    0.0000 C.2     1  UNL1        0.1981
     10 C           4.6660    1.0000    0.0000 C.2     1  UNL1        0.1981
     11 C           6.4260   -1.0347    0.0000 C.ar    1  UNL1       -0.0471
     12 C           6.4260    1.0347    0.0000 C.ar    1  UNL1        0.1286
     13 C           7.3321   -0.5208    0.0000 C.ar    1  UNL1       -0.0463
     14 C           2.9061   -1.0347    0.0000 C.ar    1  UNL1        0.1283
     15 C           7.3321    0.5208    0.0000 C.ar    1  UNL1       -0.0165
     16 C           2.9061    1.0347    0.0000 C.ar    1  UNL1       -0.0500
     17 C           2.0000   -0.5208    0.0000 C.ar    1  UNL1       -0.0194
     18 C           2.0000    0.5208    0.0000 C.ar    1  UNL1       -0.0576
     19 C           8.1962   -1.0241    0.0000 C.3     1  UNL1       -0.0396
     20 H           6.4188   -1.6546    0.0000 H       1  UNL1        0.0627
     21 H           7.8678    0.8329    0.0000 H       1  UNL1        0.0657
     22 H           2.9132    1.6546    0.0000 H       1  UNL1        0.0625
     23 H           1.4643   -0.8329    0.0000 H       1  UNL1        0.0654
     24 H           1.4643    0.8329    0.0000 H       1  UNL1        0.0619
     25 H           7.8841   -1.5599    0.0000 H       1  UNL1        0.0278
     26 H           8.7319   -1.3362    0.0000 H       1  UNL1        0.0278
     27 H           8.5082   -0.4884    0.0000 H       1  UNL1        0.0278
     28 H           6.9478    2.3508    0.0000 H       1  UNL1        0.2922
     29 H           2.3843   -2.3508    0.0000 H       1  UNL1        0.2922
@<TRIPOS>BOND
     1     1    12    1
     2     1    28    1
     3     2     9    2
     4     3    10    2
     5     4    14    1
     6     4    29    1
     7     5     6   ar
     8     5     9    1
     9     5    11   ar
    10     6    10    1
    11     6    12   ar
    12     7     8   ar
    13     7     9    1
    14     7    14   ar
    15     8    10    1
    16     8    16   ar
    17    11    13   ar
    18    11    20    1
    19    12    15   ar
    20    13    15   ar
    21    13    19    1
    22    14    17   ar
    23    15    21    1
    24    16    18   ar
    25    16    22    1
    26    17    18   ar
    27    17    23    1
    28    18    24    1
    29    19    25    1
    30    19    26    1
    31    19    27    1
