@<TRIPOS>MOLECULE
IMPHY013159
 54 56 0 0 0
SMALL
GASTEIGER

@<TRIPOS>ATOM
      1 O           2.8658   -1.2504    0.0000 O.3     1  UNL1       -0.3612
      2 O           5.4641   -0.7500    0.0000 O.3     1  UNL1       -0.4546
      3 O           6.4359    1.0408    0.0000 O.3     1  UNL1       -0.4547
      4 O           6.3301    2.7500    0.0000 O.3     1  UNL1       -0.3878
      5 O           7.0991   -0.4340    0.0000 O.2     1  UNL1       -0.2453
      6 O           4.5981   -2.2500    0.0000 O.2     1  UNL1       -0.2453
      7 C           2.8660   -0.2500    0.0000 C.3     1  UNL1        0.0969
      8 C           3.7320   -0.7500    0.0000 C.3     1  UNL1        0.1255
      9 C           4.5981   -0.2500    0.0000 C.3     1  UNL1        0.1425
     10 C           4.5981    0.7500    0.0000 C.3     1  UNL1        0.0694
     11 C           2.8660    0.7500    0.0000 C.3     1  UNL1       -0.0214
     12 C           5.4641    1.2500    0.0000 C.3     1  UNL1        0.1397
     13 C           2.0000    0.2500    0.0000 C.3     1  UNL1       -0.0332
     14 C           3.7320    1.2500    0.0000 C.3     1  UNL1       -0.0501
     15 C           5.4641    2.2500    0.0000 C.3     1  UNL1        0.0953
     16 C           4.5981    2.7500    0.0000 C.3     1  UNL1       -0.0143
     17 C           3.7320    2.2500    0.0000 C.3     1  UNL1       -0.0479
     18 C           5.2652    0.0130    0.0000 C.2     1  UNL1        0.0398
     19 C           6.3560    0.2351    0.0000 C.2     1  UNL1        0.3355
     20 C           4.5981    3.7500    0.0000 C.3     1  UNL1       -0.0599
     21 C           4.8600   -0.9013    0.0000 C.2     1  UNL1       -0.0882
     22 C           5.4641   -1.7500    0.0000 C.2     1  UNL1        0.3349
     23 C           6.3301   -2.2500    0.0000 C.2     1  UNL1        0.0293
     24 C           7.1962   -1.7500    0.0000 C.3     1  UNL1       -0.0333
     25 C           6.3301   -3.2500    0.0000 C.2     1  UNL1       -0.0774
     26 C           7.1962   -3.7500    0.0000 C.3     1  UNL1       -0.0461
     27 H           4.0421   -1.2869    0.0000 H       1  UNL1        0.0662
     28 H           4.5981   -0.8700    0.0000 H       1  UNL1        0.0769
     29 H           4.0611    1.0600    0.0000 H       1  UNL1        0.0425
     30 H           2.6540    1.3326    0.0000 H       1  UNL1        0.0294
     31 H           2.2554    0.6423    0.0000 H       1  UNL1        0.0294
     32 H           5.9464    1.6396    0.0000 H       1  UNL1        0.0768
     33 H           2.3100    0.7869    0.0000 H       1  UNL1        0.0258
     34 H           1.4631    0.5600    0.0000 H       1  UNL1        0.0258
     35 H           1.6900   -0.2869    0.0000 H       1  UNL1        0.0258
     36 H           3.9441    0.6674    0.0000 H       1  UNL1        0.0266
     37 H           4.3426    1.3577    0.0000 H       1  UNL1        0.0266
     38 H           5.4641    2.8700    0.0000 H       1  UNL1        0.0633
     39 H           4.0611    3.0600    0.0000 H       1  UNL1        0.0324
     40 H           3.5200    2.8326    0.0000 H       1  UNL1        0.0269
     41 H           3.1215    2.1423    0.0000 H       1  UNL1        0.0269
     42 H           5.2181    3.7500    0.0000 H       1  UNL1        0.0233
     43 H           4.5981    4.3700    0.0000 H       1  UNL1        0.0233
     44 H           3.9781    3.7500    0.0000 H       1  UNL1        0.0233
     45 H           6.3301    3.3700    0.0000 H       1  UNL1        0.2099
     46 H           4.2435   -0.9671    0.0000 H       1  UNL1        0.0540
     47 H           5.2253   -1.4022    0.0000 H       1  UNL1        0.0540
     48 H           7.5062   -2.2869    0.0000 H       1  UNL1        0.0280
     49 H           7.7331   -1.4400    0.0000 H       1  UNL1        0.0280
     50 H           6.8862   -1.2131    0.0000 H       1  UNL1        0.0280
     51 H           5.7932   -3.5600    0.0000 H       1  UNL1        0.0574
     52 H           6.8862   -4.2869    0.0000 H       1  UNL1        0.0272
     53 H           7.7331   -4.0600    0.0000 H       1  UNL1        0.0272
     54 H           7.5062   -3.2131    0.0000 H       1  UNL1        0.0272
@<TRIPOS>BOND
     1     1     7    1
     2     1     8    1
     3     2     9    1
     4     2    22    1
     5     3    12    1
     6     3    19    1
     7     4    15    1
     8     4    45    1
     9     5    19    2
    10     6    22    2
    11     7     8    1
    12     7    11    1
    13     7    13    1
    14     8     9    1
    15     8    27    1
    16     9    10    1
    17     9    28    1
    18    10    12    1
    19    10    18    1
    20    10    29    1
    21    11    14    1
    22    11    30    1
    23    11    31    1
    24    12    15    1
    25    12    32    1
    26    13    33    1
    27    13    34    1
    28    13    35    1
    29    14    17    1
    30    14    36    1
    31    14    37    1
    32    15    16    1
    33    15    38    1
    34    16    17    1
    35    16    20    1
    36    16    39    1
    37    17    40    1
    38    17    41    1
    39    18    19    1
    40    18    21    2
    41    20    42    1
    42    20    43    1
    43    20    44    1
    44    21    46    1
    45    21    47    1
    46    22    23    1
    47    23    24    1
    48    23    25    2
    49    24    48    1
    50    24    49    1
    51    24    50    1
    52    25    26    1
    53    25    51    1
    54    26    52    1
    55    26    53    1
    56    26    54    1
