@<TRIPOS>MOLECULE
IMPHY006307
 41 43 0 0 0
SMALL
GASTEIGER

@<TRIPOS>ATOM
      1 O           4.3213    0.0822    0.0000 O.3     1  UNL1       -0.4115
      2 O           3.9547    1.7750    0.0000 O.2     1  UNL1       -0.2260
      3 N           9.4377   -0.8290    0.0000 N.3     1  UNL1       -0.2867
      4 N           8.3260    0.7085    0.0000 N.pl3   1  UNL1       -0.3162
      5 N           2.6720    0.6111    0.0000 N.am    1  UNL1       -0.2839
      6 C           7.8260   -0.8304    0.0000 C.3     1  UNL1        0.0279
      7 C           8.6350   -0.2426    0.0000 C.3     1  UNL1        0.0860
      8 C           8.1357   -1.7750    0.0000 C.3     1  UNL1       -0.0277
      9 C           7.0170   -0.2426    0.0000 C.ar    1  UNL1       -0.0139
     10 C           9.1297   -1.7741    0.0000 C.3     1  UNL1        0.0012
     11 C           7.3260    0.7085    0.0000 C.ar    1  UNL1        0.0347
     12 C           7.0170   -1.4181    0.0000 C.3     1  UNL1       -0.0525
     13 C          10.3893   -0.5216    0.0000 C.3     1  UNL1       -0.0111
     14 C           6.0016   -0.4748    0.0000 C.ar    1  UNL1       -0.0136
     15 C           8.9138    1.5175    0.0000 C.3     1  UNL1        0.0022
     16 C           6.6410    1.4932    0.0000 C.ar    1  UNL1       -0.0369
     17 C           5.2987    0.2939    0.0000 C.ar    1  UNL1        0.1336
     18 C           5.6205    1.2845    0.0000 C.ar    1  UNL1       -0.0174
     19 C           3.6493    0.8227    0.0000 C.2     1  UNL1        0.4053
     20 C           2.0000    1.3516    0.0000 C.3     1  UNL1        0.0032
     21 H           9.3234    0.2562    0.0000 H       1  UNL1        0.0680
     22 H           7.5295   -1.9051    0.0000 H       1  UNL1        0.0287
     23 H           8.2014   -2.3915    0.0000 H       1  UNL1        0.0287
     24 H           9.0651   -2.3908    0.0000 H       1  UNL1        0.0427
     25 H           9.7362   -1.9032    0.0000 H       1  UNL1        0.0427
     26 H           6.6526   -0.9166    0.0000 H       1  UNL1        0.0239
     27 H           6.5154   -1.7826    0.0000 H       1  UNL1        0.0239
     28 H           7.3814   -1.9197    0.0000 H       1  UNL1        0.0239
     29 H          10.5799   -1.1116    0.0000 H       1  UNL1        0.0391
     30 H          10.9793   -0.3310    0.0000 H       1  UNL1        0.0391
     31 H          10.1988    0.0684    0.0000 H       1  UNL1        0.0391
     32 H           5.8168   -1.0667    0.0000 H       1  UNL1        0.0658
     33 H           9.4154    1.1531    0.0000 H       1  UNL1        0.0428
     34 H           9.2782    2.0191    0.0000 H       1  UNL1        0.0428
     35 H           8.4122    1.8819    0.0000 H       1  UNL1        0.0428
     36 H           6.8394    2.0806    0.0000 H       1  UNL1        0.0637
     37 H           5.2075    1.7469    0.0000 H       1  UNL1        0.0655
     38 H           2.4827    0.0207    0.0000 H       1  UNL1        0.1517
     39 H           2.4592    1.7683    0.0000 H       1  UNL1        0.0427
     40 H           1.5834    1.8108    0.0000 H       1  UNL1        0.0427
     41 H           1.5408    0.9350    0.0000 H       1  UNL1        0.0427
@<TRIPOS>BOND
     1     1    17    1
     2     1    19    1
     3     2    19    2
     4     3     7    1
     5     3    10    1
     6     3    13    1
     7     4     7    1
     8     4    11    1
     9     4    15    1
    10     5    19   am
    11     5    20    1
    12     5    38    1
    13     6     7    1
    14     6     8    1
    15     6     9    1
    16     6    12    1
    17     7    21    1
    18     8    10    1
    19     8    22    1
    20     8    23    1
    21     9    11   ar
    22     9    14   ar
    23    10    24    1
    24    10    25    1
    25    11    16   ar
    26    12    26    1
    27    12    27    1
    28    12    28    1
    29    13    29    1
    30    13    30    1
    31    13    31    1
    32    14    17   ar
    33    14    32    1
    34    15    33    1
    35    15    34    1
    36    15    35    1
    37    16    18   ar
    38    16    36    1
    39    17    18   ar
    40    18    37    1
    41    20    39    1
    42    20    40    1
    43    20    41    1
