@<TRIPOS>MOLECULE
IMPHY001554
 42 44 0 0 0
SMALL
GASTEIGER

@<TRIPOS>ATOM
      1 O           9.9864    0.0307    0.0000 O.2     1  UNL1       -0.2756
      2 N           8.2208   -0.0960    0.0000 N.am    1  UNL1       -0.2978
      3 N           4.1219    0.0452    0.0000 N.3     1  UNL1       -0.3014
      4 C           6.1707    0.2105    0.0000 C.3     1  UNL1       -0.0093
      5 C           7.3917   -0.6551    0.0000 C.3     1  UNL1        0.0300
      6 C           5.9119    1.1764    0.0000 C.3     1  UNL1       -0.0121
      7 C           6.6485    2.1591    0.0000 C.3     1  UNL1       -0.0419
      8 C           7.9451    0.8653    0.0000 C.3     1  UNL1        0.0190
      9 C           4.8990   -0.5841    0.0000 C.3     1  UNL1        0.0034
     10 C           4.4803    0.9788    0.0000 C.3     1  UNL1        0.0032
     11 C           7.4484   -1.6952    0.0000 C.3     1  UNL1       -0.0336
     12 C           8.3810   -2.1591    0.0000 C.3     1  UNL1       -0.0431
     13 C           9.1639   -0.5381    0.0000 C.2     1  UNL1        0.2158
     14 C           9.2446   -1.5766    0.0000 C.3     1  UNL1        0.0242
     15 C           3.1560   -0.2136    0.0000 C.3     1  UNL1        0.0023
     16 C           2.4489    0.4935    0.0000 C.3     1  UNL1       -0.0222
     17 C           1.4829    0.2347    0.0000 C.2     1  UNL1       -0.0899
     18 C           0.7758    0.9418    0.0000 C.2     1  UNL1       -0.1026
     19 H           6.3907   -0.6105    0.0000 H       1  UNL1        0.0331
     20 H           6.6871   -1.1305    0.0000 H       1  UNL1        0.0503
     21 H           5.6919    1.9975    0.0000 H       1  UNL1        0.0328
     22 H           6.3307    2.6914    0.0000 H       1  UNL1        0.0272
     23 H           7.2617    2.2510    0.0000 H       1  UNL1        0.0272
     24 H           7.9502    1.4853    0.0000 H       1  UNL1        0.0468
     25 H           8.5595    0.9491    0.0000 H       1  UNL1        0.0468
     26 H           5.2836   -1.0705    0.0000 H       1  UNL1        0.0430
     27 H           4.4581   -1.0200    0.0000 H       1  UNL1        0.0430
     28 H           3.8724    1.1011    0.0000 H       1  UNL1        0.0430
     29 H           4.4993    1.5985    0.0000 H       1  UNL1        0.0430
     30 H           7.2714   -2.2894    0.0000 H       1  UNL1        0.0283
     31 H           6.8327   -1.6225    0.0000 H       1  UNL1        0.0283
     32 H           8.8106   -2.6062    0.0000 H       1  UNL1        0.0270
     33 H           8.0140   -2.6588    0.0000 H       1  UNL1        0.0270
     34 H           9.8454   -1.4235    0.0000 H       1  UNL1        0.0358
     35 H           9.4982   -2.1423    0.0000 H       1  UNL1        0.0358
     36 H           3.4180   -0.7755    0.0000 H       1  UNL1        0.0429
     37 H           2.6481   -0.5692    0.0000 H       1  UNL1        0.0429
     38 H           2.1868    1.0554    0.0000 H       1  UNL1        0.0320
     39 H           2.9567    0.8491    0.0000 H       1  UNL1        0.0320
     40 H           1.3225   -0.3642    0.0000 H       1  UNL1        0.0567
     41 H           0.1770    0.7813    0.0000 H       1  UNL1        0.0532
     42 H           0.9363    1.5406    0.0000 H       1  UNL1        0.0532
@<TRIPOS>BOND
     1     1    13    2
     2     2     5    1
     3     2     8    1
     4     2    13   am
     5     3     9    1
     6     3    10    1
     7     3    15    1
     8     4     5    1
     9     4     7    1
    10     4     9    1
    11     4    19    1
    12     5    11    1
    13     5    20    1
    14     6     7    1
    15     6     8    1
    16     6    10    1
    17     6    21    1
    18     7    22    1
    19     7    23    1
    20     8    24    1
    21     8    25    1
    22     9    26    1
    23     9    27    1
    24    10    28    1
    25    10    29    1
    26    11    12    1
    27    11    30    1
    28    11    31    1
    29    12    14    1
    30    12    32    1
    31    12    33    1
    32    13    14    1
    33    14    34    1
    34    14    35    1
    35    15    16    1
    36    15    36    1
    37    15    37    1
    38    16    17    1
    39    16    38    1
    40    16    39    1
    41    17    18    2
    42    17    40    1
    43    18    41    1
    44    18    42    1
