@<TRIPOS>MOLECULE
IMPHY016256
 22 22 0 0 0
SMALL
GASTEIGER

@<TRIPOS>ATOM
      1 C           2.8660    0.7500    0.0000 C.3     1  UNL1       -0.0070
      2 C           2.8660   -0.2500    0.0000 C.ar    1  UNL1       -0.0434
      3 C           3.7320    1.2500    0.0000 C.2     1  UNL1       -0.0754
      4 C           2.0000   -0.7500    0.0000 C.ar    1  UNL1       -0.0583
      5 C           3.7320   -0.7500    0.0000 C.ar    1  UNL1       -0.0583
      6 C           3.7320    2.2500    0.0000 C.3     1  UNL1       -0.0437
      7 C           2.0000   -1.7500    0.0000 C.ar    1  UNL1       -0.0615
      8 C           3.7320   -1.7500    0.0000 C.ar    1  UNL1       -0.0615
      9 C           2.8660   -2.2500    0.0000 C.ar    1  UNL1       -0.0617
     10 C           4.5981    0.7500    0.0000 C.2     1  UNL1       -0.0994
     11 H           2.6540    1.3326    0.0000 H       1  UNL1        0.0358
     12 H           2.2554    0.6423    0.0000 H       1  UNL1        0.0358
     13 H           1.4631   -0.4400    0.0000 H       1  UNL1        0.0620
     14 H           4.2690   -0.4400    0.0000 H       1  UNL1        0.0620
     15 H           4.3520    2.2500    0.0000 H       1  UNL1        0.0274
     16 H           3.7320    2.8700    0.0000 H       1  UNL1        0.0274
     17 H           3.1120    2.2500    0.0000 H       1  UNL1        0.0274
     18 H           1.4631   -2.0600    0.0000 H       1  UNL1        0.0618
     19 H           4.2690   -2.0600    0.0000 H       1  UNL1        0.0618
     20 H           2.8660   -2.8700    0.0000 H       1  UNL1        0.0618
     21 H           4.5981    0.1300    0.0000 H       1  UNL1        0.0534
     22 H           5.1350    1.0600    0.0000 H       1  UNL1        0.0534
@<TRIPOS>BOND
     1     1     2    1
     2     1     3    1
     3     1    11    1
     4     1    12    1
     5     2     4   ar
     6     2     5   ar
     7     3     6    1
     8     3    10    2
     9     4     7   ar
    10     4    13    1
    11     5     8   ar
    12     5    14    1
    13     6    15    1
    14     6    16    1
    15     6    17    1
    16     7     9   ar
    17     7    18    1
    18     8     9   ar
    19     8    19    1
    20     9    20    1
    21    10    21    1
    22    10    22    1
