@<TRIPOS>MOLECULE
IMPHY004692
 28 27 0 0 0
SMALL
GASTEIGER

@<TRIPOS>ATOM
      1 O           3.7320    1.0000    0.0000 O.3     1  UNL1       -0.3513
      2 O           4.5981   -0.5000    0.0000 O.3     1  UNL1       -0.3513
      3 C           5.4641    1.0000    0.0000 C.3     1  UNL1        0.0045
      4 C           4.5981    0.5000    0.0000 C.3     1  UNL1        0.1613
      5 C           6.3301    0.5000    0.0000 C.3     1  UNL1       -0.0581
      6 C           5.4641    2.0000    0.0000 C.3     1  UNL1       -0.0581
      7 C           2.8660    0.5000    0.0000 C.3     1  UNL1        0.0478
      8 C           3.7320   -1.0000    0.0000 C.3     1  UNL1        0.0478
      9 C           2.0000    1.0000    0.0000 C.3     1  UNL1       -0.0415
     10 C           3.7320   -2.0000    0.0000 C.3     1  UNL1       -0.0415
     11 H           5.4641    0.3800    0.0000 H       1  UNL1        0.0344
     12 H           4.5981    1.1200    0.0000 H       1  UNL1        0.0912
     13 H           6.0201   -0.0369    0.0000 H       1  UNL1        0.0234
     14 H           6.8671    0.1900    0.0000 H       1  UNL1        0.0234
     15 H           6.6401    1.0369    0.0000 H       1  UNL1        0.0234
     16 H           6.0841    2.0000    0.0000 H       1  UNL1        0.0234
     17 H           5.4641    2.6200    0.0000 H       1  UNL1        0.0234
     18 H           4.8441    2.0000    0.0000 H       1  UNL1        0.0234
     19 H           3.5200   -0.4174    0.0000 H       1  UNL1        0.0558
     20 H           3.1215   -1.1077    0.0000 H       1  UNL1        0.0558
     21 H           2.4675    0.0251    0.0000 H       1  UNL1        0.0558
     22 H           3.2646    0.0251    0.0000 H       1  UNL1        0.0558
     23 H           2.3100    1.5369    0.0000 H       1  UNL1        0.0252
     24 H           1.4631    1.3100    0.0000 H       1  UNL1        0.0252
     25 H           1.6900    0.4631    0.0000 H       1  UNL1        0.0252
     26 H           3.1120   -2.0000    0.0000 H       1  UNL1        0.0252
     27 H           3.7320   -2.6200    0.0000 H       1  UNL1        0.0252
     28 H           4.3520   -2.0000    0.0000 H       1  UNL1        0.0252
@<TRIPOS>BOND
     1     1     4    1
     2     1     7    1
     3     2     4    1
     4     2     8    1
     5     3     4    1
     6     3     5    1
     7     3     6    1
     8     3    11    1
     9     4    12    1
    10     5    13    1
    11     5    14    1
    12     5    15    1
    13     6    16    1
    14     6    17    1
    15     6    18    1
    16     7     9    1
    17     7    21    1
    18     7    22    1
    19     8    10    1
    20     8    19    1
    21     8    20    1
    22     9    23    1
    23     9    24    1
    24     9    25    1
    25    10    26    1
    26    10    27    1
    27    10    28    1
