@<TRIPOS>MOLECULE
IMPHY008727
 51 54 0 0 0
SMALL
GASTEIGER

@<TRIPOS>ATOM
      1 O           6.8283   -0.7181    0.0000 O.3     1  UNL1       -0.4804
      2 O           2.0000    0.7440    0.0000 O.2     1  UNL1       -0.3004
      3 O           5.6292   -1.9679    0.0000 O.2     1  UNL1       -0.2507
      4 O           2.7461   -2.8554    0.0000 O.3     1  UNL1       -0.4802
      5 O           4.4778   -2.8857    0.0000 O.2     1  UNL1       -0.2504
      6 C           5.2824    0.6802    0.0000 C.3     1  UNL1       -0.0081
      7 C           4.3814    1.1141    0.0000 C.3     1  UNL1       -0.0219
      8 C           3.6963    0.3938    0.0000 C.3     1  UNL1        0.0339
      9 C           4.1681   -0.4812    0.0000 C.3     1  UNL1        0.0002
     10 C           5.1464   -0.3045    0.0000 C.3     1  UNL1        0.0672
     11 C           5.1755    1.8570    0.0000 C.3     1  UNL1       -0.0395
     12 C           6.1833    1.1141    0.0000 C.3     1  UNL1       -0.0250
     13 C           5.7824    2.8708    0.0000 C.3     1  UNL1       -0.0196
     14 C           3.6382   -1.3708    0.0000 C.3     1  UNL1        0.0693
     15 C           4.1589    2.0890    0.0000 C.3     1  UNL1       -0.0482
     16 C           2.6618    0.4398    0.0000 C.3     1  UNL1       -0.0403
     17 C           4.7824    2.8708    0.0000 C.3     1  UNL1       -0.0462
     18 C           6.4058    2.0890    0.0000 C.2     1  UNL1       -0.0730
     19 C           2.6030   -1.3487    0.0000 C.3     1  UNL1       -0.0372
     20 C           2.1115   -0.4373    0.0000 C.3     1  UNL1       -0.0512
     21 C           2.9492    1.0586    0.0000 C.2     1  UNL1        0.1270
     22 C           5.8680   -0.9968    0.0000 C.2     1  UNL1        0.3087
     23 C           4.4953   -1.8858    0.0000 C.3     1  UNL1       -0.0491
     24 C           3.6207   -2.3706    0.0000 C.2     1  UNL1        0.3110
     25 C           7.3808    2.3115    0.0000 C.2     1  UNL1       -0.0992
     26 H           3.6156    1.4829    0.0000 H       1  UNL1        0.0316
     27 H           4.6523   -1.1798    0.0000 H       1  UNL1        0.0329
     28 H           4.9673   -0.8981    0.0000 H       1  UNL1        0.0422
     29 H           4.7677    2.3240    0.0000 H       1  UNL1        0.0277
     30 H           4.6055    1.6132    0.0000 H       1  UNL1        0.0277
     31 H           6.3213    0.5096    0.0000 H       1  UNL1        0.0316
     32 H           6.8033    1.1141    0.0000 H       1  UNL1        0.0316
     33 H           5.9715    3.6995    0.0000 H       1  UNL1        0.0346
     34 H           3.7723    2.5738    0.0000 H       1  UNL1        0.0269
     35 H           3.6003    1.8200    0.0000 H       1  UNL1        0.0269
     36 H           2.7950    1.0454    0.0000 H       1  UNL1        0.0275
     37 H           2.0880    0.6746    0.0000 H       1  UNL1        0.0275
     38 H           4.9203    3.4753    0.0000 H       1  UNL1        0.0271
     39 H           4.2238    3.1399    0.0000 H       1  UNL1        0.0271
     40 H           2.0149   -1.5452    0.0000 H       1  UNL1        0.0276
     41 H           2.6960   -1.9617    0.0000 H       1  UNL1        0.0276
     42 H           1.6504   -0.0227    0.0000 H       1  UNL1        0.0266
     43 H           1.6242   -0.8206    0.0000 H       1  UNL1        0.0266
     44 H           3.0746    1.6658    0.0000 H       1  UNL1        0.1032
     45 H           4.1760   -2.4173    0.0000 H       1  UNL1        0.0240
     46 H           5.0268   -2.2052    0.0000 H       1  UNL1        0.0240
     47 H           4.8147   -1.3544    0.0000 H       1  UNL1        0.0240
     48 H           7.8025    1.8570    0.0000 H       1  UNL1        0.0534
     49 H           7.5635    2.9040    0.0000 H       1  UNL1        0.0534
     50 H           7.2757   -1.1473    0.0000 H       1  UNL1        0.2951
     51 H           2.7352   -3.4753    0.0000 H       1  UNL1        0.2951
@<TRIPOS>BOND
     1     1    22    1
     2     1    50    1
     3     2    21    2
     4     3    22    2
     5     4    24    1
     6     4    51    1
     7     5    24    2
     8     6     7    1
     9     6    10    1
    10     6    11    1
    11     6    12    1
    12     7     8    1
    13     7    15    1
    14     7    26    1
    15     8     9    1
    16     8    16    1
    17     8    21    1
    18     9    10    1
    19     9    14    1
    20     9    27    1
    21    10    22    1
    22    10    28    1
    23    11    13    1
    24    11    29    1
    25    11    30    1
    26    12    18    1
    27    12    31    1
    28    12    32    1
    29    13    17    1
    30    13    18    1
    31    13    33    1
    32    14    19    1
    33    14    23    1
    34    14    24    1
    35    15    17    1
    36    15    34    1
    37    15    35    1
    38    16    20    1
    39    16    36    1
    40    16    37    1
    41    17    38    1
    42    17    39    1
    43    18    25    2
    44    19    20    1
    45    19    40    1
    46    19    41    1
    47    20    42    1
    48    20    43    1
    49    21    44    1
    50    23    45    1
    51    23    46    1
    52    23    47    1
    53    25    48    1
    54    25    49    1
