@<TRIPOS>MOLECULE
IMPHY008175
 17 18 0 0 0
SMALL
GASTEIGER

@<TRIPOS>ATOM
      1 O           4.6660    1.8100    0.0000 O.2     1  UNL1       -0.2651
      2 N           4.6660   -1.1900    0.0000 N.ar    1  UNL1       -0.3454
      3 N           5.5321    0.3100    0.0000 N.ar    1  UNL1       -0.1990
      4 C           3.8000   -0.6900    0.0000 C.ar    1  UNL1        0.0528
      5 C           3.8000    0.3100    0.0000 C.ar    1  UNL1        0.0645
      6 C           2.9061   -1.2247    0.0000 C.ar    1  UNL1       -0.0376
      7 C           2.9061    0.8447    0.0000 C.ar    1  UNL1       -0.0474
      8 C           4.6660    0.8100    0.0000 C.ar    1  UNL1        0.2807
      9 C           2.0000   -0.7108    0.0000 C.ar    1  UNL1       -0.0598
     10 C           2.0000    0.3308    0.0000 C.ar    1  UNL1       -0.0609
     11 C           5.5321   -0.6900    0.0000 C.ar    1  UNL1        0.0977
     12 H           2.9132   -1.8446    0.0000 H       1  UNL1        0.0638
     13 H           2.9132    1.4646    0.0000 H       1  UNL1        0.0626
     14 H           4.6660   -1.8100    0.0000 H       1  UNL1        0.1668
     15 H           1.4643   -1.0229    0.0000 H       1  UNL1        0.0618
     16 H           1.4643    0.6429    0.0000 H       1  UNL1        0.0618
     17 H           6.0690   -1.0000    0.0000 H       1  UNL1        0.1028
@<TRIPOS>BOND
     1     1     8    2
     2     2     4   ar
     3     2    11   ar
     4     2    14    1
     5     3     8   ar
     6     3    11   ar
     7     4     5   ar
     8     4     6   ar
     9     5     7   ar
    10     5     8   ar
    11     6     9   ar
    12     6    12    1
    13     7    10   ar
    14     7    13    1
    15     9    10   ar
    16     9    15    1
    17    10    16    1
    18    11    17    1
