@<TRIPOS>MOLECULE
IMPHY009549
 67 69 0 0 0
SMALL
GASTEIGER

@<TRIPOS>ATOM
      1 O           5.5124   -0.4122    0.0000 O.3     1  UNL1       -0.3072
      2 O           7.3785    0.0878    0.0000 O.3     1  UNL1       -0.3360
      3 O           6.8785    0.9538    0.0000 O.3     1  UNL1       -0.3332
      4 O           4.8046   -2.2564    0.0000 O.3     1  UNL1       -0.3362
      5 O           5.6465   -1.9122    0.0000 O.3     1  UNL1       -0.3837
      6 O           4.1465    0.9539    0.0000 O.3     1  UNL1       -0.3864
      7 O           7.7207   -2.8518    0.0000 O.3     1  UNL1       -0.3864
      8 O           4.2804    2.4538    0.0000 O.3     1  UNL1       -0.3864
      9 O           9.1106   -1.9122    0.0000 O.3     1  UNL1       -0.3865
     10 O           7.8785    1.9538    0.0000 O.3     1  UNL1       -0.3608
     11 O           6.0125    3.4538    0.0000 O.3     1  UNL1       -0.3837
     12 O           4.0419    0.2163    0.0000 O.3     1  UNL1       -0.3837
     13 O           2.4252   -1.2394    0.0000 O.3     1  UNL1       -0.3864
     14 O           6.2997   -2.4372    0.0000 O.3     1  UNL1       -0.3896
     15 O           9.9766   -0.4122    0.0000 O.3     1  UNL1       -0.3924
     16 O           8.3785    2.8199    0.0000 O.3     1  UNL1       -0.3896
     17 O           2.3100   -3.2269    0.0000 O.3     1  UNL1       -0.3924
     18 C           6.5126   -0.4122    0.0000 C.3     1  UNL1        0.2313
     19 C           6.0125    0.4538    0.0000 C.3     1  UNL1        0.1467
     20 C           6.5126   -1.4122    0.0000 C.3     1  UNL1        0.1399
     21 C           5.1465    0.9538    0.0000 C.3     1  UNL1        0.1149
     22 C           5.0124   -1.2782    0.0000 C.3     1  UNL1        0.2255
     23 C           7.3786   -1.9122    0.0000 C.3     1  UNL1        0.1145
     24 C           5.1465    1.9538    0.0000 C.3     1  UNL1        0.1145
     25 C           8.2445   -0.4122    0.0000 C.3     1  UNL1        0.1134
     26 C           8.2445   -1.4122    0.0000 C.3     1  UNL1        0.1119
     27 C           6.8785    1.9538    0.0000 C.3     1  UNL1        0.2206
     28 C           6.0125    2.4538    0.0000 C.3     1  UNL1        0.1392
     29 C           4.1464   -0.7782    0.0000 C.3     1  UNL1        0.1395
     30 C           3.4033   -1.4473    0.0000 C.3     1  UNL1        0.1145
     31 C           3.8100   -2.3609    0.0000 C.3     1  UNL1        0.1134
     32 C           5.9907   -1.4861    0.0000 C.3     1  UNL1        0.1009
     33 C           9.1106    0.0878    0.0000 C.3     1  UNL1        0.0730
     34 C           7.3785    2.8199    0.0000 C.3     1  UNL1        0.1006
     35 C           3.3100   -3.2269    0.0000 C.3     1  UNL1        0.0730
     36 H           5.5741    0.0154    0.0000 H       1  UNL1        0.0679
     37 H           6.5126   -2.0322    0.0000 H       1  UNL1        0.0675
     38 H           4.9860    0.3550    0.0000 H       1  UNL1        0.0648
     39 H           6.9037   -2.3107    0.0000 H       1  UNL1        0.0648
     40 H           5.1465    2.5738    0.0000 H       1  UNL1        0.0648
     41 H           8.2445    0.2078    0.0000 H       1  UNL1        0.0647
     42 H           8.7815   -1.1022    0.0000 H       1  UNL1        0.0647
     43 H           6.5494    2.7638    0.0000 H       1  UNL1        0.0675
     44 H           3.5676   -0.5560    0.0000 H       1  UNL1        0.0675
     45 H           3.2428   -0.8484    0.0000 H       1  UNL1        0.0648
     46 H           4.1477   -2.8808    0.0000 H       1  UNL1        0.0647
     47 H           6.6046   -1.3998    0.0000 H       1  UNL1        0.0612
     48 H           6.0123   -0.8665    0.0000 H       1  UNL1        0.0612
     49 H           9.5091    0.5627    0.0000 H       1  UNL1        0.0584
     50 H           8.7120    0.5627    0.0000 H       1  UNL1        0.0584
     51 H           7.4862    3.4304    0.0000 H       1  UNL1        0.0612
     52 H           6.7959    3.0319    0.0000 H       1  UNL1        0.0612
     53 H           5.6465   -2.5322    0.0000 H       1  UNL1        0.2101
     54 H           3.8365    1.4908    0.0000 H       1  UNL1        0.2100
     55 H           3.2023   -3.8375    0.0000 H       1  UNL1        0.0584
     56 H           3.8926   -3.4390    0.0000 H       1  UNL1        0.0584
     57 H           8.3312   -2.9595    0.0000 H       1  UNL1        0.2100
     58 H           4.2804    3.0738    0.0000 H       1  UNL1        0.2100
     59 H           9.1106   -2.5322    0.0000 H       1  UNL1        0.2100
     60 H           8.1885    1.4169    0.0000 H       1  UNL1        0.2129
     61 H           5.4756    3.7638    0.0000 H       1  UNL1        0.2101
     62 H           3.4755    0.4685    0.0000 H       1  UNL1        0.2101
     63 H           2.0103   -1.7002    0.0000 H       1  UNL1        0.2100
     64 H           6.8255   -2.7657    0.0000 H       1  UNL1        0.2096
     65 H          10.5135   -0.1022    0.0000 H       1  UNL1        0.2095
     66 H           8.6885    3.3568    0.0000 H       1  UNL1        0.2096
     67 H           2.0000   -3.7638    0.0000 H       1  UNL1        0.2095
@<TRIPOS>BOND
     1    18     1    1
     2     1    22    1
     3     2    18    1
     4     2    25    1
     5     3    19    1
     6     3    27    1
     7     4    22    1
     8     4    31    1
     9    20     5    1
    10     5    53    1
    11    21     6    1
    12     6    54    1
    13    23     7    1
    14     7    57    1
    15    24     8    1
    16     8    58    1
    17    26     9    1
    18     9    59    1
    19    27    10    1
    20    10    60    1
    21    28    11    1
    22    11    61    1
    23    29    12    1
    24    12    62    1
    25    30    13    1
    26    13    63    1
    27    14    32    1
    28    14    64    1
    29    15    33    1
    30    15    65    1
    31    16    34    1
    32    16    66    1
    33    17    35    1
    34    17    67    1
    35    18    19    1
    36    18    20    1
    37    19    21    1
    38    19    36    1
    39    20    23    1
    40    20    37    1
    41    21    24    1
    42    21    38    1
    43    22    29    1
    44    22    32    1
    45    23    26    1
    46    23    39    1
    47    24    28    1
    48    24    40    1
    49    25    26    1
    50    25    33    1
    51    25    41    1
    52    26    42    1
    53    27    28    1
    54    27    34    1
    55    28    43    1
    56    29    30    1
    57    29    44    1
    58    30    31    1
    59    30    45    1
    60    31    35    1
    61    31    46    1
    62    32    47    1
    63    32    48    1
    64    33    49    1
    65    33    50    1
    66    34    51    1
    67    34    52    1
    68    35    55    1
    69    35    56    1
