@<TRIPOS>MOLECULE
IMPHY006449
 57 60 0 0 0
SMALL
GASTEIGER

@<TRIPOS>ATOM
      1 O          10.1488   -0.7587    0.0000 O.3     1  UNL1       -0.4489
      2 O           9.8169   -2.3335    0.0000 O.3     1  UNL1       -0.4525
      3 O           8.1051    0.7566    0.0000 O.3     1  UNL1       -0.4907
      4 O           4.5981    3.9186    0.0000 O.3     1  UNL1       -0.4907
      5 O           2.8660    2.9186    0.0000 O.3     1  UNL1       -0.4914
      6 O           6.7210    3.6738    0.0000 O.2     1  UNL1       -0.2697
      7 N           6.9939    1.9186    0.0000 N.am    1  UNL1       -0.2808
      8 N           6.8466   -3.4400    0.0000 N.3     1  UNL1       -0.3080
      9 C           7.2591   -1.4830    0.0000 C.ar    1  UNL1       -0.0318
     10 C           7.4653   -0.5045    0.0000 C.ar    1  UNL1        0.0255
     11 C           6.3086   -1.7937    0.0000 C.3     1  UNL1       -0.0141
     12 C           6.1023   -2.7722    0.0000 C.3     1  UNL1        0.0023
     13 C           6.4103    1.1138    0.0000 C.2     1  UNL1        0.0424
     14 C           8.4158   -0.1939    0.0000 C.ar    1  UNL1        0.1727
     15 C           6.7210    0.1633    0.0000 C.2     1  UNL1       -0.0288
     16 C           8.0034   -2.1509    0.0000 C.ar    1  UNL1       -0.0121
     17 C           5.4641    1.4186    0.0000 C.ar    1  UNL1        0.0121
     18 C           9.1601   -0.8617    0.0000 C.ar    1  UNL1        0.2081
     19 C           8.9539   -1.8402    0.0000 C.ar    1  UNL1        0.1702
     20 C           5.4641    2.4186    0.0000 C.ar    1  UNL1        0.0911
     21 C           6.4103    2.7233    0.0000 C.2     1  UNL1        0.2526
     22 C           4.5981    2.9186    0.0000 C.ar    1  UNL1        0.1742
     23 C           4.5981    0.9186    0.0000 C.ar    1  UNL1       -0.0484
     24 C          10.5539   -1.6664    0.0000 C.3     1  UNL1        0.2334
     25 C           3.7320    2.4186    0.0000 C.ar    1  UNL1        0.1623
     26 C           3.7320    1.4186    0.0000 C.ar    1  UNL1       -0.0156
     27 C           6.6404   -4.4186    0.0000 C.3     1  UNL1       -0.0130
     28 C           7.7972   -3.1294    0.0000 C.3     1  UNL1       -0.0130
     29 C           8.7730    1.5010    0.0000 C.3     1  UNL1        0.0790
     30 C           3.7320    4.4186    0.0000 C.3     1  UNL1        0.0790
     31 C           2.0000    2.4186    0.0000 C.3     1  UNL1        0.0790
     32 H           6.2212   -1.1799    0.0000 H       1  UNL1        0.0326
     33 H           5.6889   -1.7731    0.0000 H       1  UNL1        0.0326
     34 H           5.5271   -2.5410    0.0000 H       1  UNL1        0.0429
     35 H           5.7747   -3.2986    0.0000 H       1  UNL1        0.0429
     36 H           6.3069   -0.2982    0.0000 H       1  UNL1        0.0643
     37 H           7.8755   -2.7576    0.0000 H       1  UNL1        0.0658
     38 H           7.6139    1.9186    0.0000 H       1  UNL1        0.1552
     39 H           4.5981    0.2986    0.0000 H       1  UNL1        0.0625
     40 H          10.9194   -2.1673    0.0000 H       1  UNL1        0.1166
     41 H          11.0904   -1.3557    0.0000 H       1  UNL1        0.1166
     42 H           3.1951    1.1086    0.0000 H       1  UNL1        0.0655
     43 H           6.0337   -4.2907    0.0000 H       1  UNL1        0.0391
     44 H           7.9898   -3.7187    0.0000 H       1  UNL1        0.0391
     45 H           8.3865   -2.9368    0.0000 H       1  UNL1        0.0391
     46 H           7.6045   -2.5401    0.0000 H       1  UNL1        0.0391
     47 H           6.5126   -5.0252    0.0000 H       1  UNL1        0.0391
     48 H           7.2471   -4.5464    0.0000 H       1  UNL1        0.0391
     49 H           9.2344    1.0869    0.0000 H       1  UNL1        0.0660
     50 H           9.1870    1.9624    0.0000 H       1  UNL1        0.0660
     51 H           8.3115    1.9150    0.0000 H       1  UNL1        0.0660
     52 H           4.0420    4.9555    0.0000 H       1  UNL1        0.0660
     53 H           3.1951    4.7286    0.0000 H       1  UNL1        0.0660
     54 H           3.4220    3.8816    0.0000 H       1  UNL1        0.0660
     55 H           1.6900    2.9555    0.0000 H       1  UNL1        0.0660
     56 H           1.4631    2.1086    0.0000 H       1  UNL1        0.0660
     57 H           2.3100    1.8816    0.0000 H       1  UNL1        0.0660
@<TRIPOS>BOND
     1     1    18    1
     2     1    24    1
     3     2    19    1
     4     2    24    1
     5     3    14    1
     6     3    29    1
     7     4    22    1
     8     4    30    1
     9     5    25    1
    10     5    31    1
    11     6    21    2
    12     7    13    1
    13     7    21   am
    14     7    38    1
    15     8    12    1
    16     8    27    1
    17     8    28    1
    18     9    10   ar
    19     9    11    1
    20     9    16   ar
    21    10    14   ar
    22    10    15    1
    23    11    12    1
    24    11    32    1
    25    11    33    1
    26    12    34    1
    27    12    35    1
    28    13    15    2
    29    13    17    1
    30    14    18   ar
    31    15    36    1
    32    16    19   ar
    33    16    37    1
    34    17    20   ar
    35    17    23   ar
    36    18    19   ar
    37    20    21    1
    38    20    22   ar
    39    22    25   ar
    40    23    26   ar
    41    23    39    1
    42    24    40    1
    43    24    41    1
    44    25    26   ar
    45    26    42    1
    46    27    43    1
    47    27    47    1
    48    27    48    1
    49    28    44    1
    50    28    45    1
    51    28    46    1
    52    29    49    1
    53    29    50    1
    54    29    51    1
    55    30    52    1
    56    30    53    1
    57    30    54    1
    58    31    55    1
    59    31    56    1
    60    31    57    1
