@<TRIPOS>MOLECULE
IMPHY007175
 60 60 0 0 0
SMALL
GASTEIGER

@<TRIPOS>ATOM
      1 O           7.7331    6.2500    0.0000 O.3     1  UNL1       -0.5064
      2 O           4.2690    6.2500    0.0000 O.3     1  UNL1       -0.5064
      3 C           4.2690    1.2500    0.0000 C.3     1  UNL1       -0.0530
      4 C           5.1350    1.7500    0.0000 C.3     1  UNL1       -0.0528
      5 C           4.2690    0.2500    0.0000 C.3     1  UNL1       -0.0528
      6 C           5.1350    2.7500    0.0000 C.3     1  UNL1       -0.0491
      7 C           3.4030   -0.2500    0.0000 C.3     1  UNL1       -0.0496
      8 C           6.0010    3.2500    0.0000 C.3     1  UNL1       -0.0275
      9 C           3.4030   -1.2500    0.0000 C.3     1  UNL1       -0.0348
     10 C           3.4030   -4.2500    0.0000 C.3     1  UNL1       -0.0496
     11 C           4.2690   -4.7500    0.0000 C.3     1  UNL1       -0.0528
     12 C           3.4030   -3.2500    0.0000 C.3     1  UNL1       -0.0348
     13 C           6.0010    4.2500    0.0000 C.ar    1  UNL1       -0.0405
     14 C           4.2690   -5.7500    0.0000 C.3     1  UNL1       -0.0533
     15 C           2.5369   -1.7500    0.0000 C.2     1  UNL1       -0.0879
     16 C           2.5369   -2.7500    0.0000 C.2     1  UNL1       -0.0879
     17 C           5.1350   -6.2500    0.0000 C.3     1  UNL1       -0.0559
     18 C           5.1350    4.7500    0.0000 C.ar    1  UNL1       -0.0165
     19 C           6.8671    4.7500    0.0000 C.ar    1  UNL1       -0.0165
     20 C           6.8671    5.7500    0.0000 C.ar    1  UNL1        0.1235
     21 C           5.1350    5.7500    0.0000 C.ar    1  UNL1        0.1235
     22 C           6.0010    6.2500    0.0000 C.ar    1  UNL1        0.0323
     23 C           5.1350   -7.2500    0.0000 C.3     1  UNL1       -0.0653
     24 C           6.0010    7.2500    0.0000 C.3     1  UNL1       -0.0328
     25 H           4.0569    1.8326    0.0000 H       1  UNL1        0.0265
     26 H           3.6584    1.1423    0.0000 H       1  UNL1        0.0265
     27 H           5.3471    1.1674    0.0000 H       1  UNL1        0.0265
     28 H           5.7456    1.8577    0.0000 H       1  UNL1        0.0265
     29 H           4.4810   -0.3326    0.0000 H       1  UNL1        0.0265
     30 H           4.8796    0.3577    0.0000 H       1  UNL1        0.0265
     31 H           4.9230    3.3326    0.0000 H       1  UNL1        0.0268
     32 H           4.5244    2.6423    0.0000 H       1  UNL1        0.0268
     33 H           3.1909    0.3326    0.0000 H       1  UNL1        0.0268
     34 H           2.7924   -0.3577    0.0000 H       1  UNL1        0.0268
     35 H           6.2131    2.6674    0.0000 H       1  UNL1        0.0313
     36 H           6.6116    3.3577    0.0000 H       1  UNL1        0.0313
     37 H           3.6150   -1.8326    0.0000 H       1  UNL1        0.0307
     38 H           4.0135   -1.1423    0.0000 H       1  UNL1        0.0307
     39 H           2.7924   -4.1423    0.0000 H       1  UNL1        0.0268
     40 H           3.1909   -4.8326    0.0000 H       1  UNL1        0.0268
     41 H           4.8796   -4.8577    0.0000 H       1  UNL1        0.0265
     42 H           4.4810   -4.1674    0.0000 H       1  UNL1        0.0265
     43 H           4.0135   -3.3577    0.0000 H       1  UNL1        0.0307
     44 H           3.6150   -2.6674    0.0000 H       1  UNL1        0.0307
     45 H           3.6584   -5.6423    0.0000 H       1  UNL1        0.0265
     46 H           4.0569   -6.3326    0.0000 H       1  UNL1        0.0265
     47 H           2.0000   -1.4400    0.0000 H       1  UNL1        0.0569
     48 H           2.0000   -3.0600    0.0000 H       1  UNL1        0.0569
     49 H           5.7456   -6.3577    0.0000 H       1  UNL1        0.0263
     50 H           5.3471   -5.6674    0.0000 H       1  UNL1        0.0263
     51 H           4.5981    4.4400    0.0000 H       1  UNL1        0.0657
     52 H           7.4040    4.4400    0.0000 H       1  UNL1        0.0657
     53 H           4.5150   -7.2500    0.0000 H       1  UNL1        0.0230
     54 H           5.1350   -7.8700    0.0000 H       1  UNL1        0.0230
     55 H           5.7550   -7.2500    0.0000 H       1  UNL1        0.0230
     56 H           6.6210    7.2500    0.0000 H       1  UNL1        0.0280
     57 H           6.0010    7.8700    0.0000 H       1  UNL1        0.0280
     58 H           5.3810    7.2500    0.0000 H       1  UNL1        0.0280
     59 H           8.2700    5.9400    0.0000 H       1  UNL1        0.2921
     60 H           3.7320    5.9400    0.0000 H       1  UNL1        0.2921
@<TRIPOS>BOND
     1     1    20    1
     2     1    59    1
     3     2    21    1
     4     2    60    1
     5     3     4    1
     6     3     5    1
     7     3    25    1
     8     3    26    1
     9     4     6    1
    10     4    27    1
    11     4    28    1
    12     5     7    1
    13     5    29    1
    14     5    30    1
    15     6     8    1
    16     6    31    1
    17     6    32    1
    18     7     9    1
    19     7    33    1
    20     7    34    1
    21     8    13    1
    22     8    35    1
    23     8    36    1
    24     9    15    1
    25     9    37    1
    26     9    38    1
    27    10    11    1
    28    10    12    1
    29    10    39    1
    30    10    40    1
    31    11    14    1
    32    11    41    1
    33    11    42    1
    34    12    16    1
    35    12    43    1
    36    12    44    1
    37    13    18   ar
    38    13    19   ar
    39    14    17    1
    40    14    45    1
    41    14    46    1
    42    15    16    2
    43    15    47    1
    44    16    48    1
    45    17    23    1
    46    17    49    1
    47    17    50    1
    48    18    21   ar
    49    18    51    1
    50    19    20   ar
    51    19    52    1
    52    20    22   ar
    53    21    22   ar
    54    22    24    1
    55    23    53    1
    56    23    54    1
    57    23    55    1
    58    24    56    1
    59    24    57    1
    60    24    58    1
