@<TRIPOS>MOLECULE
IMPHY016351
 20 20 0 0 0
SMALL
GASTEIGER

@<TRIPOS>ATOM
      1 O           3.7601   -1.6307    0.0000 O.2     1  UNL1       -0.4644
      2 O           5.8424    0.6126    0.0000 O.2     1  UNL1       -0.2922
      3 C           4.2601   -0.0919    0.0000 C.ar    1  UNL1        0.0579
      4 C           4.5691   -1.0429    0.0000 C.ar    1  UNL1        0.1126
      5 C           2.9511   -1.0429    0.0000 C.ar    1  UNL1        0.1029
      6 C           3.2601   -0.0919    0.0000 C.ar    1  UNL1       -0.0102
      7 C           4.8479    0.7172    0.0000 C.2     1  UNL1        0.1634
      8 C           5.5202   -1.3519    0.0000 C.3     1  UNL1       -0.0057
      9 C           2.0000   -1.3519    0.0000 C.3     1  UNL1       -0.0063
     10 C           4.4411    1.6307    0.0000 C.3     1  UNL1       -0.0013
     11 H           2.8956    0.4097    0.0000 H       1  UNL1        0.0659
     12 H           5.3286   -1.9416    0.0000 H       1  UNL1        0.0308
     13 H           6.1098   -1.5435    0.0000 H       1  UNL1        0.0308
     14 H           5.7117   -0.7623    0.0000 H       1  UNL1        0.0308
     15 H           1.8084   -0.7623    0.0000 H       1  UNL1        0.0308
     16 H           1.4103   -1.5435    0.0000 H       1  UNL1        0.0308
     17 H           2.1916   -1.9416    0.0000 H       1  UNL1        0.0308
     18 H           5.0075    1.8829    0.0000 H       1  UNL1        0.0309
     19 H           4.1890    2.1971    0.0000 H       1  UNL1        0.0309
     20 H           3.8747    1.3785    0.0000 H       1  UNL1        0.0309
@<TRIPOS>BOND
     1     1     4   ar
     2     1     5   ar
     3     2     7    2
     4     3     4   ar
     5     3     6   ar
     6     3     7    1
     7     4     8    1
     8     5     6   ar
     9     5     9    1
    10     6    11    1
    11     7    10    1
    12     8    12    1
    13     8    13    1
    14     8    14    1
    15     9    15    1
    16     9    16    1
    17     9    17    1
    18    10    18    1
    19    10    19    1
    20    10    20    1
