@<TRIPOS>MOLECULE
IMPHY009028
 52 56 0 0 0
SMALL
GASTEIGER

@<TRIPOS>ATOM
      1 S           2.9379   -3.4047    0.0000 S.O     1  UNL1        0.0219
      2 O           2.6177   -0.2715    0.0000 O.3     1  UNL1       -0.3523
      3 O           2.0000    2.5073    0.0000 O.3     1  UNL1       -0.4577
      4 O           4.3659   -1.3403    0.0000 O.3     1  UNL1       -0.4520
      5 O           3.8182   -2.1827    0.0000 O.3     1  UNL1       -0.3842
      6 O           2.0186    4.2649    0.0000 O.2     1  UNL1       -0.2499
      7 O           6.1360   -1.3162    0.0000 O.2     1  UNL1       -0.2456
      8 O           3.9379   -3.4162    0.0000 O.2     1  UNL1       -0.2574
      9 C           3.4840    0.2290    0.0000 C.3     1  UNL1        0.1609
     10 C           2.6179    0.7290    0.0000 C.3     1  UNL1        0.1335
     11 C           3.4840    2.2290    0.0000 C.3     1  UNL1        0.0271
     12 C           4.3500    1.7290    0.0000 C.3     1  UNL1        0.0033
     13 C           2.6179    1.7290    0.0000 C.3     1  UNL1        0.1371
     14 C           4.3500    0.7290    0.0000 C.2     1  UNL1       -0.0186
     15 C           3.4679    3.2705    0.0000 C.3     1  UNL1        0.0900
     16 C           3.4679   -0.8126    0.0000 C.3     1  UNL1        0.1675
     17 C           5.2600    2.2358    0.0000 C.3     1  UNL1       -0.0251
     18 C           5.2160    1.2290    0.0000 C.3     1  UNL1       -0.0550
     19 C           2.4799    3.3776    0.0000 C.2     1  UNL1        0.3176
     20 C           2.9579   -1.6727    0.0000 C.3     1  UNL1        0.1143
     21 C           4.3659    3.7982    0.0000 C.2     1  UNL1       -0.0711
     22 C           5.2600    0.2221    0.0000 C.2     1  UNL1        0.0252
     23 C           2.9579    4.1306    0.0000 C.3     1  UNL1       -0.0455
     24 C           5.2680    3.2774    0.0000 C.2     1  UNL1       -0.0861
     25 C           5.2680   -0.8195    0.0000 C.2     1  UNL1        0.3325
     26 C           2.4479   -2.5329    0.0000 C.3     1  UNL1        0.0553
     27 C           2.0977   -1.1628    0.0000 C.3     1  UNL1       -0.0316
     28 C           2.4279   -4.2649    0.0000 C.3     1  UNL1        0.0118
     29 H           1.7679    0.7291    0.0000 H       1  UNL1        0.0667
     30 H           4.2201    2.6540    0.0000 H       1  UNL1        0.0359
     31 H           1.8153    1.4491    0.0000 H       1  UNL1        0.0765
     32 H           3.6800   -1.6357    0.0000 H       1  UNL1        0.0797
     33 H           5.4645    1.6505    0.0000 H       1  UNL1        0.0316
     34 H           5.8716    2.3372    0.0000 H       1  UNL1        0.0316
     35 H           4.9060    0.6920    0.0000 H       1  UNL1        0.0238
     36 H           5.7529    0.9190    0.0000 H       1  UNL1        0.0238
     37 H           5.5260    1.7659    0.0000 H       1  UNL1        0.0238
     38 H           4.3635    4.4182    0.0000 H       1  UNL1        0.0580
     39 H           5.7933    0.5383    0.0000 H       1  UNL1        0.0689
     40 H           3.4912    4.4468    0.0000 H       1  UNL1        0.0243
     41 H           2.6417    4.6640    0.0000 H       1  UNL1        0.0243
     42 H           2.4246    3.8145    0.0000 H       1  UNL1        0.0243
     43 H           5.8061    3.5853    0.0000 H       1  UNL1        0.0570
     44 H           1.9776   -2.1289    0.0000 H       1  UNL1        0.0430
     45 H           1.9684   -2.9259    0.0000 H       1  UNL1        0.0430
     46 H           2.4139   -0.6294    0.0000 H       1  UNL1        0.0259
     47 H           1.5644   -0.8466    0.0000 H       1  UNL1        0.0259
     48 H           1.7815   -1.6961    0.0000 H       1  UNL1        0.0259
     49 H           3.8110   -2.8027    0.0000 H       1  UNL1        0.2103
     50 H           1.8946   -3.9487    0.0000 H       1  UNL1        0.0365
     51 H           2.1117   -4.7982    0.0000 H       1  UNL1        0.0365
     52 H           2.9612   -4.5810    0.0000 H       1  UNL1        0.0365
@<TRIPOS>BOND
     1     1     8    2
     2     1    26    1
     3     1    28    1
     4     9     2    1
     5     2    10    1
     6     3    13    1
     7     3    19    1
     8     4    16    1
     9     4    25    1
    10    20     5    1
    11     5    49    1
    12     6    19    2
    13     7    25    2
    14     9    10    1
    15     9    14    1
    16     9    16    1
    17    10    13    1
    18    10    29    1
    19    11    12    1
    20    11    13    1
    21    11    15    1
    22    11    30    1
    23    12    14    1
    24    12    17    1
    25    12    18    1
    26    13    31    1
    27    14    22    2
    28    15    19    1
    29    15    21    1
    30    15    23    1
    31    16    20    1
    32    16    32    1
    33    17    24    1
    34    17    33    1
    35    17    34    1
    36    18    35    1
    37    18    36    1
    38    18    37    1
    39    20    26    1
    40    20    27    1
    41    21    24    2
    42    21    38    1
    43    22    25    1
    44    22    39    1
    45    23    40    1
    46    23    41    1
    47    23    42    1
    48    24    43    1
    49    26    44    1
    50    26    45    1
    51    27    46    1
    52    27    47    1
    53    27    48    1
    54    28    50    1
    55    28    51    1
    56    28    52    1
