@<TRIPOS>MOLECULE
IMPHY017333
 29 30 0 0 0
SMALL
GASTEIGER

@<TRIPOS>ATOM
      1 O           3.5388   -1.5950    0.0000 O.3     1  UNL1       -0.3877
      2 C           3.5388    0.4050    0.0000 C.3     1  UNL1        0.0048
      3 C           3.5388   -0.5950    0.0000 C.3     1  UNL1        0.0752
      4 C           4.4054   -0.0950    0.0000 C.3     1  UNL1       -0.0147
      5 C           2.5878   -0.9040    0.0000 C.3     1  UNL1       -0.0144
      6 C           2.5878    0.7140    0.0000 C.3     1  UNL1       -0.0441
      7 C           3.5388    1.4050    0.0000 C.3     1  UNL1       -0.0383
      8 C           2.0000   -0.0950    0.0000 C.3     1  UNL1       -0.0472
      9 C           2.2788   -1.8551    0.0000 C.3     1  UNL1       -0.0598
     10 C           4.4049    1.9050    0.0000 C.3     1  UNL1       -0.0621
     11 C           2.6728    1.9050    0.0000 C.3     1  UNL1       -0.0621
     12 H           4.8039   -0.5700    0.0000 H       1  UNL1        0.0299
     13 H           4.8039    0.3800    0.0000 H       1  UNL1        0.0299
     14 H           1.9754   -1.0010    0.0000 H       1  UNL1        0.0326
     15 H           2.8400    1.2804    0.0000 H       1  UNL1        0.0272
     16 H           2.0508    1.0240    0.0000 H       1  UNL1        0.0272
     17 H           3.5388    2.0250    0.0000 H       1  UNL1        0.0302
     18 H           1.5392    0.3199    0.0000 H       1  UNL1        0.0269
     19 H           1.5392   -0.5099    0.0000 H       1  UNL1        0.0269
     20 H           4.0758   -1.9050    0.0000 H       1  UNL1        0.2102
     21 H           1.6891   -1.6635    0.0000 H       1  UNL1        0.0233
     22 H           2.0872   -2.4447    0.0000 H       1  UNL1        0.0233
     23 H           2.8684   -2.0467    0.0000 H       1  UNL1        0.0233
     24 H           4.7149    1.3681    0.0000 H       1  UNL1        0.0233
     25 H           4.9418    2.2150    0.0000 H       1  UNL1        0.0233
     26 H           4.0949    2.4419    0.0000 H       1  UNL1        0.0233
     27 H           2.9828    2.4419    0.0000 H       1  UNL1        0.0233
     28 H           2.1359    2.2150    0.0000 H       1  UNL1        0.0233
     29 H           2.3628    1.3681    0.0000 H       1  UNL1        0.0233
@<TRIPOS>BOND
     1     1     3    1
     2     1    20    1
     3     2     3    1
     4     2     4    1
     5     2     6    1
     6     2     7    1
     7     3     4    1
     8     3     5    1
     9     4    12    1
    10     4    13    1
    11     5     8    1
    12     5     9    1
    13     5    14    1
    14     6     8    1
    15     6    15    1
    16     6    16    1
    17     7    10    1
    18     7    11    1
    19     7    17    1
    20     8    18    1
    21     8    19    1
    22     9    21    1
    23     9    22    1
    24     9    23    1
    25    10    24    1
    26    10    25    1
    27    10    26    1
    28    11    27    1
    29    11    28    1
    30    11    29    1
