@<TRIPOS>MOLECULE
IMPHY013863
 25 24 0 0 0
SMALL
GASTEIGER

@<TRIPOS>ATOM
      1 O           2.0000    0.7500    0.0000 O.co2   1  UNL1       -0.5498
      2 O           2.8660   -0.7500    0.0000 O.co2   1  UNL1       -0.5498
      3 C           6.3301    0.2500    0.0000 C.3     1  UNL1       -0.0531
      4 C           5.4641    0.7500    0.0000 C.3     1  UNL1       -0.0527
      5 C           7.1962    0.7500    0.0000 C.3     1  UNL1       -0.0533
      6 C           4.5981    0.2500    0.0000 C.3     1  UNL1       -0.0480
      7 C           8.0622    0.2500    0.0000 C.3     1  UNL1       -0.0559
      8 C           3.7320    0.7500    0.0000 C.3     1  UNL1       -0.0132
      9 C           8.9282    0.7500    0.0000 C.3     1  UNL1       -0.0653
     10 C           2.8660    0.2500    0.0000 C.2     1  UNL1        0.0417
     11 H           5.9316   -0.2249    0.0000 H       1  UNL1        0.0265
     12 H           6.7287   -0.2249    0.0000 H       1  UNL1        0.0265
     13 H           5.8626    1.2250    0.0000 H       1  UNL1        0.0265
     14 H           5.0656    1.2250    0.0000 H       1  UNL1        0.0265
     15 H           7.5947    1.2250    0.0000 H       1  UNL1        0.0265
     16 H           6.7976    1.2250    0.0000 H       1  UNL1        0.0265
     17 H           4.1996   -0.2249    0.0000 H       1  UNL1        0.0269
     18 H           4.9966   -0.2249    0.0000 H       1  UNL1        0.0269
     19 H           7.6636   -0.2249    0.0000 H       1  UNL1        0.0263
     20 H           8.4607   -0.2249    0.0000 H       1  UNL1        0.0263
     21 H           4.1306    1.2250    0.0000 H       1  UNL1        0.0325
     22 H           3.3335    1.2250    0.0000 H       1  UNL1        0.0325
     23 H           9.2382    0.2131    0.0000 H       1  UNL1        0.0230
     24 H           9.4651    1.0600    0.0000 H       1  UNL1        0.0230
     25 H           8.6182    1.2869    0.0000 H       1  UNL1        0.0230
@<TRIPOS>UNITY_ATOM_ATTR
1 1
charge -1
@<TRIPOS>BOND
     1     1    10   ar
     2     2    10   ar
     3     3     4    1
     4     3     5    1
     5     3    11    1
     6     3    12    1
     7     4     6    1
     8     4    13    1
     9     4    14    1
    10     5     7    1
    11     5    15    1
    12     5    16    1
    13     6     8    1
    14     6    17    1
    15     6    18    1
    16     7     9    1
    17     7    19    1
    18     7    20    1
    19     8    10    1
    20     8    21    1
    21     8    22    1
    22     9    23    1
    23     9    24    1
    24     9    25    1
