@<TRIPOS>MOLECULE
IMPHY014383
 40 42 0 0 0
SMALL
GASTEIGER

@<TRIPOS>ATOM
      1 O           2.8660    0.7722    0.0000 O.2     1  UNL1       -0.4911
      2 O           4.5914   -2.2422    0.0000 O.3     1  UNL1       -0.4914
      3 O           4.5981   -0.2278    0.0000 O.2     1  UNL1       -0.2833
      4 O           6.3118   -3.2622    0.0000 O.3     1  UNL1       -0.4915
      5 O           4.5981    3.7722    0.0000 O.2     1  UNL1       -0.2871
      6 C           5.4641    1.2722    0.0000 C.ar    1  UNL1        0.0438
      7 C           6.3580    0.7375    0.0000 C.ar    1  UNL1       -0.0062
      8 C           5.4641    2.2722    0.0000 C.ar    1  UNL1        0.0333
      9 C           6.3465   -0.2624    0.0000 C.ar    1  UNL1       -0.0135
     10 C           7.2641    1.2514    0.0000 C.ar    1  UNL1       -0.0533
     11 C           4.5981    0.7722    0.0000 C.2     1  UNL1        0.2287
     12 C           6.3580    2.8068    0.0000 C.ar    1  UNL1       -0.0502
     13 C           4.5981    2.7722    0.0000 C.2     1  UNL1        0.1903
     14 C           5.4747   -0.7524    0.0000 C.ar    1  UNL1       -0.0086
     15 C           7.2641    2.2930    0.0000 C.ar    1  UNL1       -0.0605
     16 C           7.2067   -0.7724    0.0000 C.ar    1  UNL1       -0.0503
     17 C           3.7320    1.2722    0.0000 C.2     1  UNL1        0.1708
     18 C           3.7320    2.2722    0.0000 C.2     1  UNL1        0.0312
     19 C           5.4632   -1.7523    0.0000 C.ar    1  UNL1        0.1621
     20 C           6.3233   -2.2623    0.0000 C.ar    1  UNL1        0.1615
     21 C           7.1951   -1.7723    0.0000 C.ar    1  UNL1       -0.0157
     22 C           2.0000    1.2722    0.0000 C.3     1  UNL1        0.0790
     23 C           4.5799   -3.2422    0.0000 C.3     1  UNL1        0.0790
     24 C           7.1720   -3.7722    0.0000 C.3     1  UNL1        0.0790
     25 H           7.7998    0.9393    0.0000 H       1  UNL1        0.0624
     26 H           6.3509    3.4268    0.0000 H       1  UNL1        0.0625
     27 H           4.9414   -0.4362    0.0000 H       1  UNL1        0.0661
     28 H           7.7998    2.6051    0.0000 H       1  UNL1        0.0618
     29 H           7.7472   -0.4686    0.0000 H       1  UNL1        0.0625
     30 H           3.1951    2.5822    0.0000 H       1  UNL1        0.0694
     31 H           7.7284   -2.0885    0.0000 H       1  UNL1        0.0655
     32 H           2.3100    1.8091    0.0000 H       1  UNL1        0.0660
     33 H           1.4631    1.5822    0.0000 H       1  UNL1        0.0660
     34 H           1.6900    0.7353    0.0000 H       1  UNL1        0.0660
     35 H           3.9599   -3.2350    0.0000 H       1  UNL1        0.0660
     36 H           4.5727   -3.8621    0.0000 H       1  UNL1        0.0660
     37 H           5.1998   -3.2494    0.0000 H       1  UNL1        0.0660
     38 H           6.8558   -4.3055    0.0000 H       1  UNL1        0.0660
     39 H           7.7053   -4.0884    0.0000 H       1  UNL1        0.0660
     40 H           7.4882   -3.2389    0.0000 H       1  UNL1        0.0660
@<TRIPOS>BOND
     1     1    17    1
     2     1    22    1
     3     2    19    1
     4     2    23    1
     5     3    11    2
     6     4    20    1
     7     4    24    1
     8     5    13    2
     9     6     7   ar
    10     6     8   ar
    11     6    11    1
    12     7     9    1
    13     7    10   ar
    14     8    12   ar
    15     8    13    1
    16     9    14   ar
    17     9    16   ar
    18    10    15   ar
    19    10    25    1
    20    11    17    1
    21    12    15   ar
    22    12    26    1
    23    13    18    1
    24    14    19   ar
    25    14    27    1
    26    15    28    1
    27    16    21   ar
    28    16    29    1
    29    17    18    2
    30    18    30    1
    31    19    20   ar
    32    20    21   ar
    33    21    31    1
    34    22    32    1
    35    22    33    1
    36    22    34    1
    37    23    35    1
    38    23    36    1
    39    23    37    1
    40    24    38    1
    41    24    39    1
    42    24    40    1
