@<TRIPOS>MOLECULE
IMPHY005522
 43 43 0 0 0
SMALL
GASTEIGER

@<TRIPOS>ATOM
      1 S           6.0010    0.1550    0.0000 S.3     1  UNL1       -0.0728
      2 S           8.5991    1.6550    0.0000 S.3     1  UNL1        0.0672
      3 O           4.2690    0.1550    0.0000 O.3     1  UNL1       -0.3549
      4 O           4.2690   -2.8450    0.0000 O.3     1  UNL1       -0.3865
      5 O           2.5369   -1.8450    0.0000 O.3     1  UNL1       -0.3865
      6 O           6.0010   -1.8450    0.0000 O.3     1  UNL1       -0.3857
      7 O           2.5369    1.1550    0.0000 O.3     1  UNL1       -0.3924
      8 O           7.7331    1.1550    0.0000 O.2     1  UNL1       -0.2480
      9 O           9.4651    2.1550    0.0000 O.co2   1  UNL1       -0.2572
     10 O           9.0991    0.7890    0.0000 O.2     1  UNL1       -0.3344
     11 O           8.0991    2.5210    0.0000 O.2     1  UNL1       -0.3344
     12 N           6.8671    1.6550    0.0000 N.2     1  UNL1       -0.0521
     13 C           4.2690   -1.8450    0.0000 C.3     1  UNL1        0.1126
     14 C           3.4030   -1.3450    0.0000 C.3     1  UNL1        0.1118
     15 C           5.1350   -1.3450    0.0000 C.3     1  UNL1        0.1192
     16 C           3.4030   -0.3450    0.0000 C.3     1  UNL1        0.1115
     17 C           5.1350   -0.3450    0.0000 C.3     1  UNL1        0.1384
     18 C           2.5369    0.1550    0.0000 C.3     1  UNL1        0.0730
     19 C           6.0010    1.1550    0.0000 C.2     1  UNL1        0.1183
     20 C           5.1350    1.6550    0.0000 C.3     1  UNL1        0.0014
     21 C           5.1350    2.6550    0.0000 C.3     1  UNL1       -0.0407
     22 C           4.2690    3.1550    0.0000 C.3     1  UNL1       -0.0623
     23 C           6.0010    3.1550    0.0000 C.3     1  UNL1       -0.0623
     24 H           4.8059   -2.1550    0.0000 H       1  UNL1        0.0647
     25 H           3.4030   -1.9650    0.0000 H       1  UNL1        0.0647
     26 H           5.6720   -1.0350    0.0000 H       1  UNL1        0.0655
     27 H           3.4030    0.2750    0.0000 H       1  UNL1        0.0646
     28 H           5.1350    0.2750    0.0000 H       1  UNL1        0.0743
     29 H           1.9264    0.2627    0.0000 H       1  UNL1        0.0584
     30 H           2.3249   -0.4276    0.0000 H       1  UNL1        0.0584
     31 H           3.7320   -3.1550    0.0000 H       1  UNL1        0.2100
     32 H           2.0000   -1.5350    0.0000 H       1  UNL1        0.2100
     33 H           6.5380   -1.5350    0.0000 H       1  UNL1        0.2100
     34 H           4.5244    1.7627    0.0000 H       1  UNL1        0.0337
     35 H           4.9230    1.0724    0.0000 H       1  UNL1        0.0337
     36 H           5.1350    3.2750    0.0000 H       1  UNL1        0.0299
     37 H           2.0000    1.4650    0.0000 H       1  UNL1        0.2095
     38 H           4.5790    3.6919    0.0000 H       1  UNL1        0.0232
     39 H           3.7320    3.4650    0.0000 H       1  UNL1        0.0232
     40 H           6.3110    2.6181    0.0000 H       1  UNL1        0.0232
     41 H           6.5380    3.4650    0.0000 H       1  UNL1        0.0232
     42 H           3.9590    2.6181    0.0000 H       1  UNL1        0.0232
     43 H           5.6910    3.6919    0.0000 H       1  UNL1        0.0232
@<TRIPOS>UNITY_ATOM_ATTR
9 1
charge -1
@<TRIPOS>BOND
     1    17     1    1
     2     1    19    1
     3     2     8    1
     4     2     9    1
     5     2    10    2
     6     2    11    2
     7     3    16    1
     8     3    17    1
     9    13     4    1
    10     4    31    1
    11    14     5    1
    12     5    32    1
    13    15     6    1
    14     6    33    1
    15     7    18    1
    16     7    37    1
    17     8    12    1
    18    12    19    2
    19    13    14    1
    20    13    15    1
    21    13    24    1
    22    14    16    1
    23    14    25    1
    24    15    17    1
    25    15    26    1
    26    16    18    1
    27    16    27    1
    28    17    28    1
    29    18    29    1
    30    18    30    1
    31    19    20    1
    32    20    21    1
    33    20    34    1
    34    20    35    1
    35    21    22    1
    36    21    23    1
    37    21    36    1
    38    22    38    1
    39    22    39    1
    40    22    42    1
    41    23    40    1
    42    23    41    1
    43    23    43    1
