@<TRIPOS>MOLECULE
IMPHY009256
 45 49 0 0 0
SMALL
GASTEIGER

@<TRIPOS>ATOM
      1 O           7.1377   -2.2675    0.0000 O.2     1  UNL1       -0.4967
      2 O           8.9116   -1.2434    0.0000 O.3     1  UNL1       -0.3801
      3 O           2.6079    0.4635    0.0000 O.3     1  UNL1       -0.4526
      4 O           2.6079    2.1400    0.0000 O.3     1  UNL1       -0.4526
      5 N           6.7037    1.7927    0.0000 N.3     1  UNL1       -0.2984
      6 C           6.2596    0.3018    0.0000 C.3     1  UNL1        0.0412
      7 C           7.1256    1.8018    0.0000 C.3     1  UNL1        0.0365
      8 C           7.1256    0.8018    0.0000 C.2     1  UNL1       -0.0390
      9 C           6.0565    0.6717    0.0000 C.3     1  UNL1       -0.0231
     10 C           5.3935    0.8018    0.0000 C.ar    1  UNL1       -0.0263
     11 C           6.2596    2.3018    0.0000 C.3     1  UNL1       -0.0077
     12 C           5.9728    1.4673    0.0000 C.3     1  UNL1        0.0006
     13 C           5.3935    1.8018    0.0000 C.ar    1  UNL1       -0.0376
     14 C           6.2435   -0.7398    0.0000 C.2     1  UNL1       -0.0290
     15 C           8.0356    0.2949    0.0000 C.2     1  UNL1       -0.0467
     16 C           8.0436   -0.7467    0.0000 C.3     1  UNL1        0.1302
     17 C           7.1415   -1.2675    0.0000 C.2     1  UNL1        0.1267
     18 C           4.4996    0.2671    0.0000 C.ar    1  UNL1       -0.0116
     19 C           6.9116    2.7708    0.0000 C.3     1  UNL1       -0.0122
     20 C           4.4996    2.3364    0.0000 C.ar    1  UNL1       -0.0126
     21 C           3.5935    0.7809    0.0000 C.ar    1  UNL1        0.1665
     22 C           3.5935    1.8226    0.0000 C.ar    1  UNL1        0.1665
     23 C           2.0000    1.3018    0.0000 C.3     1  UNL1        0.2332
     24 C           8.0018   -2.7708    0.0000 C.3     1  UNL1        0.0785
     25 H           7.5506    2.5379    0.0000 H       1  UNL1        0.0512
     26 H           5.4617    0.8468    0.0000 H       1  UNL1        0.0292
     27 H           6.6481    0.8569    0.0000 H       1  UNL1        0.0292
     28 H           6.6581    2.7767    0.0000 H       1  UNL1        0.0332
     29 H           5.8610    2.7767    0.0000 H       1  UNL1        0.0332
     30 H           5.7812    2.0570    0.0000 H       1  UNL1        0.0427
     31 H           5.3664    1.3384    0.0000 H       1  UNL1        0.0427
     32 H           5.7030   -1.0435    0.0000 H       1  UNL1        0.0618
     33 H           8.5689    0.6111    0.0000 H       1  UNL1        0.0602
     34 H           8.0448   -1.3667    0.0000 H       1  UNL1        0.0719
     35 H           4.5068   -0.3529    0.0000 H       1  UNL1        0.0658
     36 H           7.5180    2.6419    0.0000 H       1  UNL1        0.0391
     37 H           7.0405    3.3773    0.0000 H       1  UNL1        0.0391
     38 H           6.3051    2.8997    0.0000 H       1  UNL1        0.0391
     39 H           4.5068    2.9564    0.0000 H       1  UNL1        0.0658
     40 H           9.4473   -0.9313    0.0000 H       1  UNL1        0.2108
     41 H           1.5391    1.7165    0.0000 H       1  UNL1        0.1166
     42 H           1.5391    0.8870    0.0000 H       1  UNL1        0.1166
     43 H           7.6897   -3.3066    0.0000 H       1  UNL1        0.0660
     44 H           8.5375   -3.0829    0.0000 H       1  UNL1        0.0660
     45 H           8.3138   -2.2351    0.0000 H       1  UNL1        0.0660
@<TRIPOS>BOND
     1     1    17    1
     2     1    24    1
     3    16     2    1
     4     2    40    1
     5     3    21    1
     6     3    23    1
     7     4    22    1
     8     4    23    1
     9     5     7    1
    10     5    12    1
    11     5    19    1
    12     6     8    1
    13     6     9    1
    14     6    10    1
    15     6    14    1
    16     7     8    1
    17     7    11    1
    18     7    25    1
    19     8    15    2
    20     9    12    1
    21     9    26    1
    22     9    27    1
    23    10    13   ar
    24    10    18   ar
    25    11    13    1
    26    11    28    1
    27    11    29    1
    28    12    30    1
    29    12    31    1
    30    13    20   ar
    31    14    17    2
    32    14    32    1
    33    15    16    1
    34    15    33    1
    35    16    17    1
    36    16    34    1
    37    18    21   ar
    38    18    35    1
    39    19    36    1
    40    19    37    1
    41    19    38    1
    42    20    22   ar
    43    20    39    1
    44    21    22   ar
    45    23    41    1
    46    23    42    1
    47    24    43    1
    48    24    44    1
    49    24    45    1
