@<TRIPOS>MOLECULE
IMPHY014435
 27 27 0 0 0
SMALL
GASTEIGER

@<TRIPOS>ATOM
      1 C           2.8660   -1.7500    0.0000 C.ar    1  UNL1       -0.0250
      2 C           2.0000   -2.2500    0.0000 C.ar    1  UNL1       -0.0546
      3 C           3.7320   -2.2500    0.0000 C.ar    1  UNL1       -0.0546
      4 C           2.8660   -0.7500    0.0000 C.2     1  UNL1       -0.0546
      5 C           2.0000   -3.2500    0.0000 C.ar    1  UNL1       -0.0612
      6 C           3.7320   -3.2500    0.0000 C.ar    1  UNL1       -0.0612
      7 C           2.8660   -3.7500    0.0000 C.ar    1  UNL1       -0.0617
      8 C           3.7320   -0.2500    0.0000 C.2     1  UNL1       -0.0612
      9 C           3.7320    0.7500    0.0000 C.2     1  UNL1       -0.0617
     10 C           4.5981    1.2500    0.0000 C.2     1  UNL1       -0.0621
     11 C           4.5981    2.2500    0.0000 C.2     1  UNL1       -0.0659
     12 C           5.4641    2.7500    0.0000 C.2     1  UNL1       -0.0871
     13 C           5.4641    3.7500    0.0000 C.3     1  UNL1       -0.0465
     14 H           1.4631   -1.9400    0.0000 H       1  UNL1        0.0623
     15 H           4.2690   -1.9400    0.0000 H       1  UNL1        0.0623
     16 H           2.3291   -0.4400    0.0000 H       1  UNL1        0.0623
     17 H           1.4631   -3.5600    0.0000 H       1  UNL1        0.0618
     18 H           4.2690   -3.5600    0.0000 H       1  UNL1        0.0618
     19 H           4.2690   -0.5600    0.0000 H       1  UNL1        0.0618
     20 H           2.8660   -4.3700    0.0000 H       1  UNL1        0.0618
     21 H           3.1951    1.0600    0.0000 H       1  UNL1        0.0618
     22 H           5.1350    0.9400    0.0000 H       1  UNL1        0.0617
     23 H           4.0611    2.5600    0.0000 H       1  UNL1        0.0614
     24 H           6.0010    2.4400    0.0000 H       1  UNL1        0.0569
     25 H           6.0841    3.7500    0.0000 H       1  UNL1        0.0272
     26 H           5.4641    4.3700    0.0000 H       1  UNL1        0.0272
     27 H           4.8441    3.7500    0.0000 H       1  UNL1        0.0272
@<TRIPOS>BOND
     1     1     2   ar
     2     1     3   ar
     3     1     4    1
     4     2     5   ar
     5     2    14    1
     6     3     6   ar
     7     3    15    1
     8     4     8    2
     9     4    16    1
    10     5     7   ar
    11     5    17    1
    12     6     7   ar
    13     6    18    1
    14     7    20    1
    15     8     9    1
    16     8    19    1
    17     9    10    2
    18     9    21    1
    19    10    11    1
    20    10    22    1
    21    11    12    2
    22    11    23    1
    23    12    13    1
    24    12    24    1
    25    13    25    1
    26    13    26    1
    27    13    27    1
