@<TRIPOS>MOLECULE
IMPHY015562
 32 33 0 0 0
SMALL
GASTEIGER

@<TRIPOS>ATOM
      1 O           2.9136   -1.5168    0.0000 O.3     1  UNL1       -0.3765
      2 C           4.6736    0.3800    0.0000 C.3     1  UNL1       -0.0210
      3 C           4.6736   -0.6200    0.0000 C.3     1  UNL1       -0.0057
      4 C           5.5402   -0.1200    0.0000 C.3     1  UNL1       -0.0408
      5 C           3.7226   -0.9290    0.0000 C.3     1  UNL1        0.0697
      6 C           3.7226    0.6891    0.0000 C.3     1  UNL1       -0.0442
      7 C           3.1348   -0.1200    0.0000 C.3     1  UNL1       -0.0232
      8 C           4.6736    1.3800    0.0000 C.3     1  UNL1       -0.0407
      9 C           4.0316   -1.8800    0.0000 C.3     1  UNL1       -0.0356
     10 C           5.5396    1.8800    0.0000 C.3     1  UNL1       -0.0622
     11 C           3.8076    1.8800    0.0000 C.3     1  UNL1       -0.0622
     12 C           2.0000   -1.1100    0.0000 C.3     1  UNL1        0.0372
     13 H           5.0193   -1.3965    0.0000 H       1  UNL1        0.0334
     14 H           5.9386   -0.5949    0.0000 H       1  UNL1        0.0275
     15 H           5.9386    0.3550    0.0000 H       1  UNL1        0.0275
     16 H           3.9747    1.2554    0.0000 H       1  UNL1        0.0272
     17 H           3.1856    0.9991    0.0000 H       1  UNL1        0.0272
     18 H           2.6740    0.2949    0.0000 H       1  UNL1        0.0293
     19 H           2.6740   -0.5348    0.0000 H       1  UNL1        0.0293
     20 H           4.1367    1.0700    0.0000 H       1  UNL1        0.0301
     21 H           3.4419   -2.0716    0.0000 H       1  UNL1        0.0257
     22 H           4.2232   -2.4697    0.0000 H       1  UNL1        0.0257
     23 H           4.6212   -1.6884    0.0000 H       1  UNL1        0.0257
     24 H           5.8496    1.3431    0.0000 H       1  UNL1        0.0233
     25 H           6.0766    2.1900    0.0000 H       1  UNL1        0.0233
     26 H           5.2296    2.4170    0.0000 H       1  UNL1        0.0233
     27 H           4.1176    2.4170    0.0000 H       1  UNL1        0.0233
     28 H           3.2707    2.1900    0.0000 H       1  UNL1        0.0233
     29 H           3.4976    1.3431    0.0000 H       1  UNL1        0.0233
     30 H           2.2522   -0.5436    0.0000 H       1  UNL1        0.0524
     31 H           1.4336   -0.8579    0.0000 H       1  UNL1        0.0524
     32 H           1.7478   -1.6764    0.0000 H       1  UNL1        0.0524
@<TRIPOS>BOND
     1     5     1    1
     2     1    12    1
     3     2     3    1
     4     2     4    1
     5     2     6    1
     6     2     8    1
     7     3     4    1
     8     3     5    1
     9     3    13    1
    10     4    14    1
    11     4    15    1
    12     5     7    1
    13     5     9    1
    14     6     7    1
    15     6    16    1
    16     6    17    1
    17     7    18    1
    18     7    19    1
    19     8    10    1
    20     8    11    1
    21     8    20    1
    22     9    21    1
    23     9    22    1
    24     9    23    1
    25    10    24    1
    26    10    25    1
    27    10    26    1
    28    11    27    1
    29    11    28    1
    30    11    29    1
    31    12    30    1
    32    12    31    1
    33    12    32    1
