@<TRIPOS>MOLECULE
IMPHY006178
 47 48 0 0 0
SMALL
GASTEIGER

@<TRIPOS>ATOM
      1 O           2.6811    3.9775    0.0000 O.3     1  UNL1       -0.3796
      2 O           5.1184    2.9482    0.0000 O.2     1  UNL1       -0.2726
      3 O           2.8660   -0.0026    0.0000 O.2     1  UNL1       -0.2706
      4 N           4.5981   -0.0026    0.0000 N.am    1  UNL1       -0.2795
      5 N           3.9595    1.6611    0.0000 N.am    1  UNL1       -0.2945
      6 C           4.7026    0.9920    0.0000 C.3     1  UNL1        0.0925
      7 C           5.6808    1.1999    0.0000 C.3     1  UNL1       -0.0162
      8 C           6.1808    0.3338    0.0000 C.3     1  UNL1       -0.0339
      9 C           5.5116   -0.4093    0.0000 C.3     1  UNL1        0.0168
     10 C           3.4242    3.3084    0.0000 C.3     1  UNL1        0.1384
     11 C           4.1674    2.6392    0.0000 C.2     1  UNL1        0.2458
     12 C           3.7320   -0.5026    0.0000 C.2     1  UNL1        0.2408
     13 C           4.0934    4.0515    0.0000 C.3     1  UNL1       -0.0185
     14 C           2.7551    2.5652    0.0000 C.3     1  UNL1       -0.0275
     15 C           3.7320   -1.5026    0.0000 C.2     1  UNL1        0.0009
     16 C           3.7843    5.0026    0.0000 C.3     1  UNL1       -0.0622
     17 C           2.8660   -2.0026    0.0000 C.2     1  UNL1       -0.0497
     18 C           2.8660   -3.0026    0.0000 C.ar    1  UNL1       -0.0249
     19 C           2.0000   -3.5026    0.0000 C.ar    1  UNL1       -0.0546
     20 C           3.7320   -3.5026    0.0000 C.ar    1  UNL1       -0.0546
     21 C           2.0000   -4.5026    0.0000 C.ar    1  UNL1       -0.0612
     22 C           3.7320   -4.5026    0.0000 C.ar    1  UNL1       -0.0612
     23 C           2.8660   -5.0026    0.0000 C.ar    1  UNL1       -0.0617
     24 H           4.8631    1.5908    0.0000 H       1  UNL1        0.0709
     25 H           6.2472    1.4520    0.0000 H       1  UNL1        0.0300
     26 H           5.4892    1.7895    0.0000 H       1  UNL1        0.0300
     27 H           6.5956   -0.1269    0.0000 H       1  UNL1        0.0281
     28 H           6.6823    0.6983    0.0000 H       1  UNL1        0.0281
     29 H           5.2016   -0.9462    0.0000 H       1  UNL1        0.0465
     30 H           6.0132   -0.7737    0.0000 H       1  UNL1        0.0465
     31 H           3.3698    1.4695    0.0000 H       1  UNL1        0.1506
     32 H           4.4751    3.5629    0.0000 H       1  UNL1        0.0295
     33 H           4.6408    4.3426    0.0000 H       1  UNL1        0.0295
     34 H           2.2944    2.9801    0.0000 H       1  UNL1        0.0262
     35 H           2.3402    2.1045    0.0000 H       1  UNL1        0.0262
     36 H           3.2158    2.1504    0.0000 H       1  UNL1        0.0262
     37 H           4.2690   -1.8126    0.0000 H       1  UNL1        0.0670
     38 H           4.3740    5.1942    0.0000 H       1  UNL1        0.0231
     39 H           3.5928    5.5922    0.0000 H       1  UNL1        0.0231
     40 H           3.1947    4.8110    0.0000 H       1  UNL1        0.0231
     41 H           2.8100    4.5840    0.0000 H       1  UNL1        0.2108
     42 H           2.3291   -1.6926    0.0000 H       1  UNL1        0.0625
     43 H           1.4631   -3.1926    0.0000 H       1  UNL1        0.0623
     44 H           4.2690   -3.1926    0.0000 H       1  UNL1        0.0623
     45 H           1.4631   -4.8126    0.0000 H       1  UNL1        0.0618
     46 H           4.2690   -4.8126    0.0000 H       1  UNL1        0.0618
     47 H           2.8660   -5.6226    0.0000 H       1  UNL1        0.0618
@<TRIPOS>BOND
     1    10     1    1
     2     1    41    1
     3     2    11    2
     4     3    12    2
     5     4     6    1
     6     4     9    1
     7     4    12   am
     8     6     5    1
     9     5    11   am
    10     5    31    1
    11     6     7    1
    12     6    24    1
    13     7     8    1
    14     7    25    1
    15     7    26    1
    16     8     9    1
    17     8    27    1
    18     8    28    1
    19     9    29    1
    20     9    30    1
    21    10    11    1
    22    10    13    1
    23    10    14    1
    24    12    15    1
    25    13    16    1
    26    13    32    1
    27    13    33    1
    28    14    34    1
    29    14    35    1
    30    14    36    1
    31    15    17    2
    32    15    37    1
    33    16    38    1
    34    16    39    1
    35    16    40    1
    36    17    18    1
    37    17    42    1
    38    18    19   ar
    39    18    20   ar
    40    19    21   ar
    41    19    43    1
    42    20    22   ar
    43    20    44    1
    44    21    23   ar
    45    21    45    1
    46    22    23   ar
    47    22    46    1
    48    23    47    1
