@<TRIPOS>MOLECULE
IMPHY008363
 42 43 0 0 0
SMALL
GASTEIGER

@<TRIPOS>ATOM
      1 O           5.4641    0.5000    0.0000 O.2     1  UNL1       -0.4223
      2 O           2.8660    2.0000    0.0000 O.3     1  UNL1       -0.4945
      3 O           6.3301    2.0000    0.0000 O.2     1  UNL1       -0.2447
      4 C           4.5981    3.0000    0.0000 C.3     1  UNL1        0.0181
      5 C           4.5981    2.0000    0.0000 C.ar    1  UNL1        0.0878
      6 C           5.5981    3.0000    0.0000 C.3     1  UNL1       -0.0520
      7 C           3.5981    3.0000    0.0000 C.3     1  UNL1       -0.0520
      8 C           4.5981    4.0000    0.0000 C.2     1  UNL1       -0.0808
      9 C           3.7320    1.5000    0.0000 C.ar    1  UNL1        0.1344
     10 C           5.4641    1.5000    0.0000 C.ar    1  UNL1        0.3448
     11 C           3.7320    0.5000    0.0000 C.ar    1  UNL1        0.0230
     12 C           4.5981   -0.0000    0.0000 C.ar    1  UNL1        0.1355
     13 C           5.4641    4.5000    0.0000 C.2     1  UNL1       -0.1018
     14 C           4.5981   -1.0000    0.0000 C.2     1  UNL1       -0.0185
     15 C           3.7320   -1.5000    0.0000 C.2     1  UNL1       -0.0511
     16 C           2.0000    1.5000    0.0000 C.3     1  UNL1        0.0788
     17 C           3.7320   -2.5000    0.0000 C.ar    1  UNL1       -0.0249
     18 C           2.8660   -3.0000    0.0000 C.ar    1  UNL1       -0.0546
     19 C           4.5981   -3.0000    0.0000 C.ar    1  UNL1       -0.0546
     20 C           2.8660   -4.0000    0.0000 C.ar    1  UNL1       -0.0612
     21 C           4.5981   -4.0000    0.0000 C.ar    1  UNL1       -0.0612
     22 C           3.7320   -4.5000    0.0000 C.ar    1  UNL1       -0.0617
     23 H           3.5981    3.6200    0.0000 H       1  UNL1        0.0241
     24 H           5.5981    2.3800    0.0000 H       1  UNL1        0.0241
     25 H           6.2181    3.0000    0.0000 H       1  UNL1        0.0241
     26 H           5.5981    3.6200    0.0000 H       1  UNL1        0.0241
     27 H           2.9781    3.0000    0.0000 H       1  UNL1        0.0241
     28 H           3.5981    2.3800    0.0000 H       1  UNL1        0.0241
     29 H           4.0611    4.3100    0.0000 H       1  UNL1        0.0575
     30 H           3.1951    0.1900    0.0000 H       1  UNL1        0.0691
     31 H           6.0010    4.1900    0.0000 H       1  UNL1        0.0532
     32 H           5.4641    5.1200    0.0000 H       1  UNL1        0.0532
     33 H           5.1350   -1.3100    0.0000 H       1  UNL1        0.0654
     34 H           3.1951   -1.1900    0.0000 H       1  UNL1        0.0625
     35 H           1.6900    2.0369    0.0000 H       1  UNL1        0.0660
     36 H           1.4631    1.1900    0.0000 H       1  UNL1        0.0660
     37 H           2.3100    0.9631    0.0000 H       1  UNL1        0.0660
     38 H           2.3291   -2.6900    0.0000 H       1  UNL1        0.0623
     39 H           5.1350   -2.6900    0.0000 H       1  UNL1        0.0623
     40 H           2.3291   -4.3100    0.0000 H       1  UNL1        0.0618
     41 H           5.1350   -4.3100    0.0000 H       1  UNL1        0.0618
     42 H           3.7320   -5.1200    0.0000 H       1  UNL1        0.0618
@<TRIPOS>BOND
     1     1    10   ar
     2     1    12   ar
     3     2     9    1
     4     2    16    1
     5     3    10    2
     6     4     5    1
     7     4     6    1
     8     4     7    1
     9     4     8    1
    10     5     9   ar
    11     5    10   ar
    12     6    24    1
    13     6    25    1
    14     6    26    1
    15     7    23    1
    16     7    27    1
    17     7    28    1
    18     8    13    2
    19     8    29    1
    20     9    11   ar
    21    11    12   ar
    22    11    30    1
    23    12    14    1
    24    13    31    1
    25    13    32    1
    26    14    15    2
    27    14    33    1
    28    15    17    1
    29    15    34    1
    30    16    35    1
    31    16    36    1
    32    16    37    1
    33    17    18   ar
    34    17    19   ar
    35    18    20   ar
    36    18    38    1
    37    19    21   ar
    38    19    39    1
    39    20    22   ar
    40    20    40    1
    41    21    22   ar
    42    21    41    1
    43    22    42    1
