@<TRIPOS>MOLECULE
IMPHY005223
 89 96 0 0 0
SMALL
GASTEIGER

@<TRIPOS>ATOM
      1 O           6.6572    3.1010    0.0000 O.3     1  UNL1       -0.3578
      2 O           2.6120    1.8387    0.0000 O.3     1  UNL1       -0.3329
      3 O           9.0711    1.5411    0.0000 O.3     1  UNL1       -0.3724
      4 O           5.4641   -0.6198    0.0000 O.3     1  UNL1       -0.3644
      5 O           7.2220    2.8951    0.0000 O.3     1  UNL1       -0.3886
      6 O           3.8080    4.0309    0.0000 O.3     1  UNL1       -0.3778
      7 O           6.3342   -1.6364    0.0000 O.3     1  UNL1       -0.3910
      8 O           1.4214    3.3159    0.0000 O.2     1  UNL1       -0.4680
      9 O           9.8740   -1.6500    0.0000 O.3     1  UNL1       -0.4568
     10 O          10.6324   -0.6853    0.0000 O.3     1  UNL1       -0.4674
     11 O           4.5207   -1.3156    0.0000 O.3     1  UNL1       -0.4661
     12 O          10.3119    1.0169    0.0000 O.2     1  UNL1       -0.2500
     13 O           3.6521    0.1829    0.0000 O.2     1  UNL1       -0.2479
     14 O           9.0138   -3.1533    0.0000 O.2     1  UNL1       -0.2453
     15 C           6.0139    2.3348    0.0000 C.3     1  UNL1        0.1333
     16 C           6.3560    1.3951    0.0000 C.3     1  UNL1        0.0368
     17 C           5.6719    3.2745    0.0000 C.3     1  UNL1        0.1055
     18 C           6.3560    0.3951    0.0000 C.3     1  UNL1        0.0168
     19 C           7.2220   -0.1049    0.0000 C.3     1  UNL1        0.0330
     20 C           4.3226    2.6457    0.0000 C.3     1  UNL1        0.0316
     21 C           4.6647    1.7060    0.0000 C.3     1  UNL1        0.0955
     22 C           8.0880    0.3951    0.0000 C.3     1  UNL1        0.0196
     23 C           7.2220    1.8951    0.0000 C.3     1  UNL1        0.0901
     24 C           4.0165    0.6629    0.0000 C.3     1  UNL1       -0.0149
     25 C           8.0880    1.3951    0.0000 C.3     1  UNL1        0.0898
     26 C           8.9980   -0.1117    0.0000 C.3     1  UNL1        0.1334
     27 C           3.0308    3.4016    0.0000 C.3     1  UNL1        0.1545
     28 C           5.3842    0.1859    0.0000 C.3     1  UNL1        0.1591
     29 C           7.2059   -1.1464    0.0000 C.3     1  UNL1        0.0671
     30 C           5.4899    1.8951    0.0000 C.3     1  UNL1       -0.0539
     31 C           5.3299    4.2142    0.0000 C.3     1  UNL1       -0.0326
     32 C           6.5549   -0.8419    0.0000 C.3     1  UNL1        0.0575
     33 C           2.2537    2.7723    0.0000 C.3     1  UNL1        0.2342
     34 C           9.0060   -1.1534    0.0000 C.3     1  UNL1        0.1239
     35 C           8.1040   -1.6742    0.0000 C.3     1  UNL1        0.0122
     36 C           9.5848    0.6903    0.0000 C.3     1  UNL1        0.0677
     37 C           2.6722    4.3288    0.0000 C.2     1  UNL1       -0.0121
     38 C           9.9808    0.0733    0.0000 C.2     1  UNL1        0.3193
     39 C           4.5190   -0.3156    0.0000 C.2     1  UNL1        0.3363
     40 C           1.6795    4.2759    0.0000 C.2     1  UNL1        0.0870
     41 C           9.8778   -2.6500    0.0000 C.2     1  UNL1        0.3349
     42 C          11.6151   -0.5003    0.0000 C.3     1  UNL1        0.0817
     43 C           5.3876   -1.8141    0.0000 C.3     1  UNL1        0.0817
     44 C          10.7458   -3.1467    0.0000 C.2     1  UNL1        0.0293
     45 C          11.6099   -2.6433    0.0000 C.3     1  UNL1       -0.0333
     46 C          10.7496   -4.1466    0.0000 C.2     1  UNL1       -0.0774
     47 C          11.6176   -4.6433    0.0000 C.3     1  UNL1       -0.0461
     48 H           5.6947    0.9292    0.0000 H       1  UNL1        0.0345
     49 H           4.0319    3.4444    0.0000 H       1  UNL1        0.0363
     50 H           4.9554    0.9072    0.0000 H       1  UNL1        0.0627
     51 H           8.0880   -0.4549    0.0000 H       1  UNL1        0.0346
     52 H           6.6850    2.2051    0.0000 H       1  UNL1        0.0626
     53 H           4.3795    0.1603    0.0000 H       1  UNL1        0.0296
     54 H           3.4137    0.5179    0.0000 H       1  UNL1        0.0296
     55 H           8.2470    2.2301    0.0000 H       1  UNL1        0.0625
     56 H           5.1015   -0.3660    0.0000 H       1  UNL1        0.0716
     57 H           7.2000   -1.7664    0.0000 H       1  UNL1        0.0601
     58 H           5.1799    1.3582    0.0000 H       1  UNL1        0.0237
     59 H           4.9530    2.2051    0.0000 H       1  UNL1        0.0237
     60 H           5.7999    2.4320    0.0000 H       1  UNL1        0.0237
     61 H           4.7473    4.0021    0.0000 H       1  UNL1        0.0258
     62 H           5.1178    4.7968    0.0000 H       1  UNL1        0.0258
     63 H           5.9125    4.4262    0.0000 H       1  UNL1        0.0258
     64 H           7.0811   -1.1699    0.0000 H       1  UNL1        0.0567
     65 H           6.3254   -1.4179    0.0000 H       1  UNL1        0.0567
     66 H           1.5931    2.2374    0.0000 H       1  UNL1        0.1090
     67 H           9.5412   -0.8402    0.0000 H       1  UNL1        0.0747
     68 H           8.5013   -2.1501    0.0000 H       1  UNL1        0.0326
     69 H           7.7030   -2.1471    0.0000 H       1  UNL1        0.0326
     70 H          10.0688    1.0779    0.0000 H       1  UNL1        0.0572
     71 H          10.0327    0.2616    0.0000 H       1  UNL1        0.0572
     72 H           7.7589    3.2051    0.0000 H       1  UNL1        0.2099
     73 H           3.0090    4.8493    0.0000 H       1  UNL1        0.0633
     74 H           3.7110    4.6433    0.0000 H       1  UNL1        0.2109
     75 H           6.3270   -2.2563    0.0000 H       1  UNL1        0.2098
     76 H           1.2893    4.7577    0.0000 H       1  UNL1        0.1022
     77 H          11.5004    0.1090    0.0000 H       1  UNL1        0.0661
     78 H          12.2244   -0.3855    0.0000 H       1  UNL1        0.0661
     79 H          11.7298   -1.1096    0.0000 H       1  UNL1        0.0661
     80 H           5.6967   -1.2766    0.0000 H       1  UNL1        0.0661
     81 H           5.9251   -2.1232    0.0000 H       1  UNL1        0.0661
     82 H           5.0785   -2.3516    0.0000 H       1  UNL1        0.0661
     83 H          11.2978   -2.1076    0.0000 H       1  UNL1        0.0280
     84 H          12.1456   -2.3313    0.0000 H       1  UNL1        0.0280
     85 H          11.9220   -3.1791    0.0000 H       1  UNL1        0.0280
     86 H          10.2139   -4.4587    0.0000 H       1  UNL1        0.0574
     87 H          11.9255   -4.1052    0.0000 H       1  UNL1        0.0272
     88 H          12.1557   -4.9512    0.0000 H       1  UNL1        0.0272
     89 H          11.3097   -5.1814    0.0000 H       1  UNL1        0.0272
@<TRIPOS>BOND
     1    15     1    1
     2     1    17    1
     3     2    21    1
     4     2    33    1
     5     3    25    1
     6     3    36    1
     7     4    28    1
     8     4    32    1
     9    23     5    1
    10     5    72    1
    11    27     6    1
    12     6    74    1
    13    29     7    1
    14     7    75    1
    15     8    33    1
    16     8    40    1
    17    34     9    1
    18     9    41    1
    19    10    38    1
    20    10    42    1
    21    11    39    1
    22    11    43    1
    23    12    38    2
    24    13    39    2
    25    14    41    2
    26    15    16    1
    27    15    17    1
    28    15    21    1
    29    16    18    1
    30    16    23    1
    31    16    30    1
    32    17    20    1
    33    17    31    1
    34    18    19    1
    35    18    28    1
    36    18    48    1
    37    19    22    1
    38    19    29    1
    39    19    32    1
    40    20    24    1
    41    20    27    1
    42    20    49    1
    43    21    24    1
    44    21    50    1
    45    22    25    1
    46    22    26    1
    47    22    51    1
    48    23    25    1
    49    23    52    1
    50    24    53    1
    51    24    54    1
    52    25    55    1
    53    26    34    1
    54    26    36    1
    55    26    38    1
    56    27    33    1
    57    27    37    1
    58    28    39    1
    59    28    56    1
    60    29    35    1
    61    29    57    1
    62    30    58    1
    63    30    59    1
    64    30    60    1
    65    31    61    1
    66    31    62    1
    67    31    63    1
    68    32    64    1
    69    32    65    1
    70    33    66    1
    71    34    35    1
    72    34    67    1
    73    35    68    1
    74    35    69    1
    75    36    70    1
    76    36    71    1
    77    37    40    2
    78    37    73    1
    79    40    76    1
    80    41    44    1
    81    42    77    1
    82    42    78    1
    83    42    79    1
    84    43    80    1
    85    43    81    1
    86    43    82    1
    87    44    45    1
    88    44    46    2
    89    45    83    1
    90    45    84    1
    91    45    85    1
    92    46    47    1
    93    46    86    1
    94    47    87    1
    95    47    88    1
    96    47    89    1
