@<TRIPOS>MOLECULE
IMPHY006508
 42 44 0 0 0
SMALL
GASTEIGER

@<TRIPOS>ATOM
      1 O           2.5369   -2.4054    0.0000 O.3     1  UNL1       -0.5067
      2 O           9.3274   -1.0315    0.0000 O.2     1  UNL1       -0.2708
      3 O          11.1914    4.6716    0.0000 O.3     1  UNL1       -0.5068
      4 N           6.0812   -4.2101    0.0000 N.ar    1  UNL1       -0.3604
      5 N           7.6811   -0.4934    0.0000 N.am    1  UNL1       -0.3115
      6 C           6.0812   -2.6007    0.0000 C.ar    1  UNL1       -0.0208
      7 C           5.1350   -2.9054    0.0000 C.ar    1  UNL1        0.0063
      8 C           6.3919   -1.6502    0.0000 C.3     1  UNL1       -0.0101
      9 C           5.1350   -3.9054    0.0000 C.ar    1  UNL1        0.0470
     10 C           6.6648   -3.4054    0.0000 C.ar    1  UNL1        0.0060
     11 C           7.3704   -1.4439    0.0000 C.3     1  UNL1        0.0159
     12 C           4.2690   -2.4054    0.0000 C.ar    1  UNL1       -0.0108
     13 C           4.2690   -4.4054    0.0000 C.ar    1  UNL1       -0.0343
     14 C           3.4030   -2.9054    0.0000 C.ar    1  UNL1        0.1176
     15 C           3.4030   -3.9054    0.0000 C.ar    1  UNL1       -0.0182
     16 C           8.6596   -0.2872    0.0000 C.2     1  UNL1        0.2369
     17 C           8.9702    0.6633    0.0000 C.2     1  UNL1        0.0007
     18 C          10.2594    1.8200    0.0000 C.ar    1  UNL1       -0.0247
     19 C           9.9487    0.8695    0.0000 C.2     1  UNL1       -0.0497
     20 C          11.2379    2.0263    0.0000 C.ar    1  UNL1       -0.0511
     21 C           9.5916    2.5644    0.0000 C.ar    1  UNL1       -0.0511
     22 C          11.5486    2.9768    0.0000 C.ar    1  UNL1       -0.0196
     23 C           9.9022    3.5149    0.0000 C.ar    1  UNL1       -0.0196
     24 C          10.8807    3.7211    0.0000 C.ar    1  UNL1        0.1169
     25 H           6.3713   -1.0305    0.0000 H       1  UNL1        0.0329
     26 H           5.7781   -1.5628    0.0000 H       1  UNL1        0.0329
     27 H           7.3910   -2.0636    0.0000 H       1  UNL1        0.0465
     28 H           7.9842   -1.5313    0.0000 H       1  UNL1        0.0465
     29 H           7.2848   -3.4054    0.0000 H       1  UNL1        0.0810
     30 H           6.2738   -4.7995    0.0000 H       1  UNL1        0.1653
     31 H           4.2690   -1.7854    0.0000 H       1  UNL1        0.0661
     32 H           4.2690   -5.0254    0.0000 H       1  UNL1        0.0639
     33 H           2.8660   -4.2154    0.0000 H       1  UNL1        0.0655
     34 H           7.2670   -0.0320    0.0000 H       1  UNL1        0.1490
     35 H           8.5562    1.1248    0.0000 H       1  UNL1        0.0669
     36 H           2.0000   -2.7154    0.0000 H       1  UNL1        0.2921
     37 H          10.3628    0.4081    0.0000 H       1  UNL1        0.0625
     38 H          11.6520    1.5648    0.0000 H       1  UNL1        0.0625
     39 H           8.9849    2.4365    0.0000 H       1  UNL1        0.0625
     40 H          12.1552    3.1046    0.0000 H       1  UNL1        0.0654
     41 H           9.4881    3.9763    0.0000 H       1  UNL1        0.0654
     42 H          11.7981    4.7995    0.0000 H       1  UNL1        0.2921
@<TRIPOS>BOND
     1     1    14    1
     2     1    36    1
     3     2    16    2
     4     3    24    1
     5     3    42    1
     6     4     9   ar
     7     4    10   ar
     8     4    30    1
     9     5    11    1
    10     5    16   am
    11     5    34    1
    12     6     7   ar
    13     6     8    1
    14     6    10   ar
    15     7     9   ar
    16     7    12   ar
    17     8    11    1
    18     8    25    1
    19     8    26    1
    20     9    13   ar
    21    10    29    1
    22    11    27    1
    23    11    28    1
    24    12    14   ar
    25    12    31    1
    26    13    15   ar
    27    13    32    1
    28    14    15   ar
    29    15    33    1
    30    16    17    1
    31    17    19    2
    32    17    35    1
    33    18    19    1
    34    18    20   ar
    35    18    21   ar
    36    19    37    1
    37    20    22   ar
    38    20    38    1
    39    21    23   ar
    40    21    39    1
    41    22    24   ar
    42    22    40    1
    43    23    24   ar
    44    23    41    1
