@<TRIPOS>MOLECULE
IMPHY006655
 46 50 0 0 0
SMALL
GASTEIGER

@<TRIPOS>ATOM
      1 S           2.8660    3.4142    0.0000 S.2     1  UNL1        0.0062
      2 S           2.8660   -3.4142    0.0000 S.2     1  UNL1        0.0062
      3 O           2.1589    1.7071    0.0000 O.3     1  UNL1       -0.4417
      4 O           2.1589   -1.7071    0.0000 O.3     1  UNL1       -0.4417
      5 N           3.5731    1.7071    0.0000 N.am    1  UNL1       -0.2463
      6 N           3.5731   -1.7071    0.0000 N.am    1  UNL1       -0.2463
      7 C           2.8660   -1.0000    0.0000 C.3     1  UNL1        0.2225
      8 C           2.8660    1.0000    0.0000 C.3     1  UNL1        0.2225
      9 C           2.0000   -0.5000    0.0000 C.2     1  UNL1       -0.0160
     10 C           3.7320   -0.5000    0.0000 C.2     1  UNL1       -0.0160
     11 C           2.0000    0.5000    0.0000 C.2     1  UNL1       -0.0160
     12 C           3.7320    0.5000    0.0000 C.2     1  UNL1       -0.0160
     13 C           2.8660   -2.4142    0.0000 C.2     1  UNL1        0.2367
     14 C           2.8660    2.4142    0.0000 C.2     1  UNL1        0.2367
     15 C           4.5731    1.7071    0.0000 C.3     1  UNL1        0.0446
     16 C           4.5731   -1.7071    0.0000 C.3     1  UNL1        0.0446
     17 C           5.0731   -2.5731    0.0000 C.ar    1  UNL1       -0.0299
     18 C           5.0731    2.5731    0.0000 C.ar    1  UNL1       -0.0299
     19 C           6.0731    2.5731    0.0000 C.ar    1  UNL1       -0.0571
     20 C           4.5731   -3.4392    0.0000 C.ar    1  UNL1       -0.0571
     21 C           4.5731    3.4392    0.0000 C.ar    1  UNL1       -0.0571
     22 C           6.0731   -2.5731    0.0000 C.ar    1  UNL1       -0.0571
     23 C           5.0731   -4.3052    0.0000 C.ar    1  UNL1       -0.0615
     24 C           6.5731    3.4392    0.0000 C.ar    1  UNL1       -0.0615
     25 C           6.5731   -3.4392    0.0000 C.ar    1  UNL1       -0.0615
     26 C           5.0731    4.3052    0.0000 C.ar    1  UNL1       -0.0615
     27 C           6.0731    4.3052    0.0000 C.ar    1  UNL1       -0.0617
     28 C           6.0731   -4.3052    0.0000 C.ar    1  UNL1       -0.0617
     29 H           1.4631   -0.8100    0.0000 H       1  UNL1        0.0631
     30 H           4.2690   -0.8100    0.0000 H       1  UNL1        0.0631
     31 H           1.4631    0.8100    0.0000 H       1  UNL1        0.0631
     32 H           4.2690    0.8100    0.0000 H       1  UNL1        0.0631
     33 H           4.4655    1.0965    0.0000 H       1  UNL1        0.0515
     34 H           5.1557    1.4950    0.0000 H       1  UNL1        0.0515
     35 H           5.1557   -1.4950    0.0000 H       1  UNL1        0.0515
     36 H           4.4655   -1.0965    0.0000 H       1  UNL1        0.0515
     37 H           3.9531   -3.4392    0.0000 H       1  UNL1        0.0621
     38 H           6.3831    2.0362    0.0000 H       1  UNL1        0.0621
     39 H           6.3831   -2.0362    0.0000 H       1  UNL1        0.0621
     40 H           3.9531    3.4392    0.0000 H       1  UNL1        0.0621
     41 H           7.1931    3.4392    0.0000 H       1  UNL1        0.0618
     42 H           4.7631   -4.8421    0.0000 H       1  UNL1        0.0618
     43 H           4.7631    4.8421    0.0000 H       1  UNL1        0.0618
     44 H           7.1931   -3.4392    0.0000 H       1  UNL1        0.0618
     45 H           6.3831    4.8421    0.0000 H       1  UNL1        0.0618
     46 H           6.3831   -4.8421    0.0000 H       1  UNL1        0.0618
@<TRIPOS>BOND
     1     1    14    2
     2     2    13    2
     3     3     8    1
     4     3    14    1
     5     4     7    1
     6     4    13    1
     7     5     8    1
     8     5    14    1
     9     5    15    1
    10     6     7    1
    11     6    13    1
    12     6    16    1
    13     7     9    1
    14     7    10    1
    15     8    11    1
    16     8    12    1
    17     9    11    2
    18     9    29    1
    19    10    12    2
    20    10    30    1
    21    11    31    1
    22    12    32    1
    23    15    18    1
    24    15    33    1
    25    15    34    1
    26    16    17    1
    27    16    35    1
    28    16    36    1
    29    17    20   ar
    30    17    22   ar
    31    18    19   ar
    32    18    21   ar
    33    19    24   ar
    34    19    38    1
    35    20    23   ar
    36    20    37    1
    37    21    26   ar
    38    21    40    1
    39    22    25   ar
    40    22    39    1
    41    23    28   ar
    42    23    42    1
    43    24    27   ar
    44    24    41    1
    45    25    28   ar
    46    25    44    1
    47    26    27   ar
    48    26    43    1
    49    27    45    1
    50    28    46    1
