@<TRIPOS>MOLECULE
IMPHY005904
 75 80 0 0 0
SMALL
GASTEIGER

@<TRIPOS>ATOM
      1 O           5.2020   -3.1250    0.0000 O.3     1  UNL1       -0.3610
      2 O           4.3198   -3.6592    0.0000 O.3     1  UNL1       -0.3862
      3 O           4.3198    0.4100    0.0000 O.2     1  UNL1       -0.2966
      4 O           2.5381   -2.6487    0.0000 O.3     1  UNL1       -0.3887
      5 O          10.4564    2.8286    0.0000 O.3     1  UNL1       -0.4574
      6 O          11.7544    3.9753    0.0000 O.2     1  UNL1       -0.2452
      7 O          13.3966    3.4246    0.0000 O.3     1  UNL1       -0.3902
      8 C           5.2022   -2.1246    0.0000 C.3     1  UNL1        0.1362
      9 C           5.2022   -1.1246    0.0000 C.3     1  UNL1        0.0632
     10 C           6.9343   -1.1246    0.0000 C.3     1  UNL1       -0.0315
     11 C           6.0682   -0.6246    0.0000 C.3     1  UNL1       -0.0229
     12 C           6.0682   -2.6246    0.0000 C.3     1  UNL1        0.0923
     13 C           7.8443   -0.6177    0.0000 C.3     1  UNL1       -0.0322
     14 C           7.8523    0.4239    0.0000 C.3     1  UNL1       -0.0258
     15 C           6.9343   -2.1246    0.0000 C.3     1  UNL1       -0.0203
     16 C           6.0522    0.4170    0.0000 C.3     1  UNL1       -0.0485
     17 C           8.8403    0.7337    0.0000 C.3     1  UNL1       -0.0294
     18 C           6.9502    0.9447    0.0000 C.3     1  UNL1       -0.0468
     19 C           4.3083   -2.6592    0.0000 C.3     1  UNL1        0.1136
     20 C           8.8274   -0.9427    0.0000 C.3     1  UNL1       -0.0492
     21 C           9.4418   -0.1092    0.0000 C.3     1  UNL1       -0.0491
     22 C           4.3083   -0.5899    0.0000 C.2     1  UNL1        0.1449
     23 C           5.2022   -0.1246    0.0000 C.3     1  UNL1       -0.0497
     24 C           3.4022   -2.1454    0.0000 C.3     1  UNL1        0.0905
     25 C           7.8600    1.4239    0.0000 C.3     1  UNL1       -0.0590
     26 C           3.4022   -1.1037    0.0000 C.3     1  UNL1        0.0350
     27 C           9.1583    1.6818    0.0000 C.3     1  UNL1       -0.0030
     28 C          10.1384    1.8805    0.0000 C.3     1  UNL1        0.1099
     29 C           8.4962    2.4312    0.0000 C.3     1  UNL1       -0.0588
     30 C          10.8005    1.1310    0.0000 C.3     1  UNL1        0.0064
     31 C          11.7805    1.3297    0.0000 C.2     1  UNL1       -0.0570
     32 C          11.4364    3.0272    0.0000 C.2     1  UNL1        0.3376
     33 C          12.0985    2.2778    0.0000 C.2     1  UNL1        0.0608
     34 C          12.4426    0.5803    0.0000 C.3     1  UNL1       -0.0428
     35 C          13.0786    2.4765    0.0000 C.3     1  UNL1        0.0759
     36 H           7.6671   -1.5552    0.0000 H       1  UNL1        0.0307
     37 H           6.8011   -0.1939    0.0000 H       1  UNL1        0.0314
     38 H           6.4934   -3.3606    0.0000 H       1  UNL1        0.0626
     39 H           7.9244   -1.4639    0.0000 H       1  UNL1        0.0309
     40 H           7.1463   -2.7072    0.0000 H       1  UNL1        0.0294
     41 H           7.5449   -2.0169    0.0000 H       1  UNL1        0.0294
     42 H           5.8342    0.9974    0.0000 H       1  UNL1        0.0268
     43 H           5.4431    0.3015    0.0000 H       1  UNL1        0.0268
     44 H           9.6810    0.8591    0.0000 H       1  UNL1        0.0310
     45 H           7.3475    1.4207    0.0000 H       1  UNL1        0.0271
     46 H           6.5493    1.4176    0.0000 H       1  UNL1        0.0271
     47 H           3.7744   -2.9744    0.0000 H       1  UNL1        0.0649
     48 H           8.5720   -1.5077    0.0000 H       1  UNL1        0.0268
     49 H           9.3624   -1.2561    0.0000 H       1  UNL1        0.0268
     50 H           9.8994   -0.5275    0.0000 H       1  UNL1        0.0268
     51 H           9.9058    0.3020    0.0000 H       1  UNL1        0.0268
     52 H           5.8222   -0.1246    0.0000 H       1  UNL1        0.0240
     53 H           5.2022    0.4954    0.0000 H       1  UNL1        0.0240
     54 H           4.5822   -0.1246    0.0000 H       1  UNL1        0.0240
     55 H           2.8647   -1.8364    0.0000 H       1  UNL1        0.0624
     56 H           8.4800    1.4191    0.0000 H       1  UNL1        0.0235
     57 H           7.8648    2.0438    0.0000 H       1  UNL1        0.0235
     58 H           7.2400    1.4286    0.0000 H       1  UNL1        0.0235
     59 H           3.1932   -0.5200    0.0000 H       1  UNL1        0.0368
     60 H           2.7914   -1.2098    0.0000 H       1  UNL1        0.0368
     61 H           9.3555    2.2696    0.0000 H       1  UNL1        0.0337
     62 H           3.7865   -3.9753    0.0000 H       1  UNL1        0.2100
     63 H          10.9714    2.0493    0.0000 H       1  UNL1        0.0740
     64 H           8.9609    2.8417    0.0000 H       1  UNL1        0.0234
     65 H           8.0857    2.8959    0.0000 H       1  UNL1        0.0234
     66 H           8.0316    2.0207    0.0000 H       1  UNL1        0.0234
     67 H           2.0000   -2.3408    0.0000 H       1  UNL1        0.2099
     68 H          10.2716    0.8075    0.0000 H       1  UNL1        0.0346
     69 H          11.0273    0.5540    0.0000 H       1  UNL1        0.0346
     70 H          11.9780    0.1698    0.0000 H       1  UNL1        0.0275
     71 H          12.8531    0.1156    0.0000 H       1  UNL1        0.0275
     72 H          12.9073    0.9908    0.0000 H       1  UNL1        0.0275
     73 H          13.0944    1.8567    0.0000 H       1  UNL1        0.0609
     74 H          13.6917    2.3844    0.0000 H       1  UNL1        0.0609
     75 H          14.0042    3.5478    0.0000 H       1  UNL1        0.2099
@<TRIPOS>BOND
     1     8     1    1
     2     1    12    1
     3    19     2    1
     4     2    62    1
     5     3    22    2
     6    24     4    1
     7     4    67    1
     8     5    28    1
     9     5    32    1
    10     6    32    2
    11     7    35    1
    12     7    75    1
    13     8     9    1
    14     8    12    1
    15     8    19    1
    16     9    11    1
    17     9    22    1
    18     9    23    1
    19    10    11    1
    20    10    13    1
    21    10    15    1
    22    10    36    1
    23    11    16    1
    24    11    37    1
    25    12    15    1
    26    12    38    1
    27    13    14    1
    28    13    20    1
    29    13    39    1
    30    14    17    1
    31    14    18    1
    32    14    25    1
    33    15    40    1
    34    15    41    1
    35    16    18    1
    36    16    42    1
    37    16    43    1
    38    17    21    1
    39    17    27    1
    40    17    44    1
    41    18    45    1
    42    18    46    1
    43    19    24    1
    44    19    47    1
    45    20    21    1
    46    20    48    1
    47    20    49    1
    48    21    50    1
    49    21    51    1
    50    22    26    1
    51    23    52    1
    52    23    53    1
    53    23    54    1
    54    24    26    1
    55    24    55    1
    56    25    56    1
    57    25    57    1
    58    25    58    1
    59    26    59    1
    60    26    60    1
    61    27    28    1
    62    27    29    1
    63    27    61    1
    64    28    30    1
    65    28    63    1
    66    29    64    1
    67    29    65    1
    68    29    66    1
    69    30    31    1
    70    30    68    1
    71    30    69    1
    72    31    33    2
    73    31    34    1
    74    32    33    1
    75    33    35    1
    76    34    70    1
    77    34    71    1
    78    34    72    1
    79    35    73    1
    80    35    74    1
