@<TRIPOS>MOLECULE
IMPHY005502
 42 45 0 0 0
SMALL
GASTEIGER

@<TRIPOS>ATOM
      1 O4*         5.2116    2.2563    0.0000 O.3     1  UNL1       -0.3457
      2 O2*         7.5575    1.1644    0.0000 O.3     1  UNL1       -0.3847
      3 O3*         7.5613    3.3400    0.0000 O.3     1  UNL1       -0.3864
      4 O5*         6.1638    4.7579    0.0000 O.3     1  UNL1       -0.3924
      5 O           3.6180   -4.3968    0.0000 O.2     1  UNL1       -0.4662
      6 N           5.4873    0.4957    0.0000 N.ar    1  UNL1       -0.2855
      7 N           5.4873   -1.1137    0.0000 N.ar    1  UNL1       -0.2306
      8 N           3.6750    0.6910    0.0000 N.ar    1  UNL1       -0.2159
      9 N           3.6750   -2.3090    0.0000 N.pl3   1  UNL1       -0.3201
     10 N           2.8090   -0.8090    0.0000 N.ar    1  UNL1       -0.2186
     11 C2*         6.7495    1.7536    0.0000 C.3     1  UNL1        0.1285
     12 C1*         5.7980    1.4462    0.0000 C.3     1  UNL1        0.1667
     13 C3*         6.7513    2.7536    0.0000 C.3     1  UNL1        0.1135
     14 C4*         5.8008    3.0643    0.0000 C.3     1  UNL1        0.1126
     15 C5*         5.4934    4.0159    0.0000 C.3     1  UNL1        0.0730
     16 C           4.5411    0.1910    0.0000 C.ar    1  UNL1        0.1674
     17 C           6.0709   -0.3090    0.0000 C.ar    1  UNL1        0.1004
     18 C           4.5411   -0.8090    0.0000 C.ar    1  UNL1        0.1475
     19 C           3.6750   -1.3090    0.0000 C.ar    1  UNL1        0.1501
     20 C           2.8090    0.1910    0.0000 C.ar    1  UNL1        0.1205
     21 C           2.8090   -2.8090    0.0000 C.3     1  UNL1        0.0686
     22 C           2.8090   -3.8090    0.0000 C.ar    1  UNL1        0.1218
     23 C           2.0000   -4.3968    0.0000 C.ar    1  UNL1       -0.0192
     24 C           2.3090   -5.3478    0.0000 C.ar    1  UNL1       -0.0236
     25 C           3.3090   -5.3478    0.0000 C.ar    1  UNL1        0.0921
     26 H2*         6.6515    1.1414    0.0000 H       1  UNL1        0.0665
     27 H1*         5.1854    1.3503    0.0000 H       1  UNL1        0.0866
     28 H3*         7.3032    2.4712    0.0000 H       1  UNL1        0.0647
     29 H4*         5.1886    3.1623    0.0000 H       1  UNL1        0.0647
     30 H5*1        5.1125    4.5051    0.0000 H       1  UNL1        0.0584
     31 H5*2        4.9454    3.7258    0.0000 H       1  UNL1        0.0584
     32 H2*         8.1244    1.4156    0.0000 H       1  UNL1        0.2101
     33 H3*         8.1273    3.0868    0.0000 H       1  UNL1        0.2100
     34 H           6.6909   -0.3090    0.0000 H       1  UNL1        0.1030
     35 H5*         5.9732    5.3478    0.0000 H       1  UNL1        0.2095
     36 H           4.2120   -2.6190    0.0000 H       1  UNL1        0.1480
     37 H           2.2721    0.5010    0.0000 H       1  UNL1        0.1048
     38 H           2.5970   -2.2264    0.0000 H       1  UNL1        0.0542
     39 H           2.1984   -2.9167    0.0000 H       1  UNL1        0.0542
     40 H           1.4103   -4.2052    0.0000 H       1  UNL1        0.0652
     41 H           1.9446   -5.8494    0.0000 H       1  UNL1        0.0649
     42 H           3.6734   -5.8494    0.0000 H       1  UNL1        0.1029
@<TRIPOS>BOND
     1     1    12    1
     2     1    14    1
     3    11     2    1
     4     2    32    1
     5    13     3    1
     6     3    33    1
     7     4    15    1
     8     4    35    1
     9     5    22   ar
    10     5    25   ar
    11    12     6    1
    12     6    16   ar
    13     6    17   ar
    14     7    17   ar
    15     7    18   ar
    16     8    16   ar
    17     8    20   ar
    18     9    19    1
    19     9    21    1
    20     9    36    1
    21    10    19   ar
    22    10    20   ar
    23    11    12    1
    24    11    13    1
    25    11    26    1
    26    12    27    1
    27    13    14    1
    28    13    28    1
    29    14    15    1
    30    14    29    1
    31    15    30    1
    32    15    31    1
    33    16    18   ar
    34    17    34    1
    35    18    19   ar
    36    20    37    1
    37    21    22    1
    38    21    38    1
    39    21    39    1
    40    22    23   ar
    41    23    24   ar
    42    23    40    1
    43    24    25   ar
    44    24    41    1
    45    25    42    1
