@<TRIPOS>MOLECULE
IMPHY001402
 123 130 0 0 0
SMALL
GASTEIGER

@<TRIPOS>ATOM
      1 O           6.8671   -2.6888    0.0000 O.3     1  UNL1       -0.3443
      2 O           9.2738   -2.0189    0.0000 O.3     1  UNL1       -0.4802
      3 O           9.2604   -0.2870    0.0000 O.2     1  UNL1       -0.2503
      4 O           7.7597    6.3531    0.0000 O.3     1  UNL1       -0.4575
      5 O           5.1350   -2.6888    0.0000 O.3     1  UNL1       -0.3405
      6 O           6.8671   -4.6888    0.0000 O.3     1  UNL1       -0.3377
      7 O           5.1350   -5.6888    0.0000 O.3     1  UNL1       -0.3864
      8 O           9.0622    7.4948    0.0000 O.2     1  UNL1       -0.2453
      9 O           3.4030   -4.6888    0.0000 O.3     1  UNL1       -0.3865
     10 O           2.5369   -3.1888    0.0000 O.3     1  UNL1       -0.3924
     11 O           6.0010   -6.1888    0.0000 O.3     1  UNL1       -0.3315
     12 O           8.5991   -5.6888    0.0000 O.3     1  UNL1       -0.3841
     13 O           8.5991   -7.6888    0.0000 O.3     1  UNL1       -0.3864
     14 O           6.8671   -8.6888    0.0000 O.3     1  UNL1       -0.3860
     15 O           4.2690   -7.1888    0.0000 O.3     1  UNL1       -0.4661
     16 O           5.1350   -8.6888    0.0000 O.2     1  UNL1       -0.2478
     17 C           6.8948    1.3804    0.0000 C.3     1  UNL1       -0.0194
     18 C           6.8910    0.3804    0.0000 C.3     1  UNL1       -0.0188
     19 C           6.0264    0.8837    0.0000 C.3     1  UNL1       -0.0401
     20 C           7.7628    1.8770    0.0000 C.3     1  UNL1       -0.0289
     21 C           7.7551   -0.1230    0.0000 C.3     1  UNL1       -0.0169
     22 C           7.7829    2.9185    0.0000 C.3     1  UNL1       -0.0231
     23 C           5.9868    1.8907    0.0000 C.3     1  UNL1       -0.0460
     24 C           6.8869    3.4497    0.0000 C.3     1  UNL1       -0.0232
     25 C           5.9790   -0.1230    0.0000 C.3     1  UNL1       -0.0442
     26 C           8.6269    1.3737    0.0000 C.3     1  UNL1       -0.0489
     27 C           8.6230    0.3737    0.0000 C.3     1  UNL1       -0.0483
     28 C           5.9828    2.9324    0.0000 C.3     1  UNL1       -0.0463
     29 C           7.7671   -1.1645    0.0000 C.3     1  UNL1        0.0941
     30 C           7.1165    4.4594    0.0000 C.3     1  UNL1       -0.0292
     31 C           8.5586    3.6044    0.0000 C.3     1  UNL1       -0.0466
     32 C           5.9670   -1.1645    0.0000 C.3     1  UNL1       -0.0249
     33 C           6.8671   -1.6888    0.0000 C.3     1  UNL1        0.0775
     34 C           8.1475    4.5548    0.0000 C.3     1  UNL1       -0.0488
     35 C           8.6430    2.4085    0.0000 C.3     1  UNL1       -0.0588
     36 C           6.0267    3.9597    0.0000 C.3     1  UNL1       -0.0588
     37 C           6.4573    5.2113    0.0000 C.3     1  UNL1       -0.0030
     38 C           8.2738   -2.0267    0.0000 C.3     1  UNL1       -0.0467
     39 C           8.7671   -1.1568    0.0000 C.2     1  UNL1        0.3135
     40 C           6.7789    6.1582    0.0000 C.3     1  UNL1        0.1096
     41 C           5.4765    5.0164    0.0000 C.3     1  UNL1       -0.0588
     42 C           6.0010   -3.1888    0.0000 C.3     1  UNL1        0.1886
     43 C           6.1197    6.9102    0.0000 C.3     1  UNL1        0.0036
     44 C           6.0010   -4.1888    0.0000 C.3     1  UNL1        0.1406
     45 C           6.4414    7.8570    0.0000 C.2     1  UNL1       -0.0708
     46 C           5.1350   -4.6888    0.0000 C.3     1  UNL1        0.1144
     47 C           8.0814    7.3000    0.0000 C.2     1  UNL1        0.3349
     48 C           4.2690   -3.1888    0.0000 C.3     1  UNL1        0.1130
     49 C           7.4222    8.0519    0.0000 C.2     1  UNL1        0.0297
     50 C           4.2690   -4.1888    0.0000 C.3     1  UNL1        0.1119
     51 C           3.4030   -2.6888    0.0000 C.3     1  UNL1        0.0730
     52 C           7.7438    8.9988    0.0000 C.3     1  UNL1       -0.0332
     53 C           6.8671   -5.6888    0.0000 C.3     1  UNL1        0.1891
     54 C           7.7331   -6.1888    0.0000 C.3     1  UNL1        0.1342
     55 C           7.7331   -7.1888    0.0000 C.3     1  UNL1        0.1145
     56 C           6.0010   -7.1888    0.0000 C.3     1  UNL1        0.1861
     57 C           6.8671   -7.6888    0.0000 C.3     1  UNL1        0.1202
     58 C           5.1350   -7.6888    0.0000 C.2     1  UNL1        0.3388
     59 C           3.4030   -7.6888    0.0000 C.3     1  UNL1        0.0817
     60 H           5.6297    1.3602    0.0000 H       1  UNL1        0.0276
     61 H           5.6261    0.4103    0.0000 H       1  UNL1        0.0276
     62 H           8.5038    2.2935    0.0000 H       1  UNL1        0.0312
     63 H           8.4928   -0.5451    0.0000 H       1  UNL1        0.0318
     64 H           5.3755    1.9945    0.0000 H       1  UNL1        0.0271
     65 H           5.7800    1.3062    0.0000 H       1  UNL1        0.0271
     66 H           5.7768    0.4631    0.0000 H       1  UNL1        0.0272
     67 H           5.3670   -0.2220    0.0000 H       1  UNL1        0.0272
     68 H           9.2370    1.2637    0.0000 H       1  UNL1        0.0268
     69 H           8.8412    1.9555    0.0000 H       1  UNL1        0.0268
     70 H           8.8328   -0.2097    0.0000 H       1  UNL1        0.0269
     71 H           9.2340    0.4790    0.0000 H       1  UNL1        0.0269
     72 H           5.7715    3.5152    0.0000 H       1  UNL1        0.0271
     73 H           5.3724    2.8239    0.0000 H       1  UNL1        0.0271
     74 H           7.4313    5.2489    0.0000 H       1  UNL1        0.0310
     75 H           8.9182    3.0994    0.0000 H       1  UNL1        0.0271
     76 H           9.0986    3.9090    0.0000 H       1  UNL1        0.0271
     77 H           5.3574   -1.0514    0.0000 H       1  UNL1        0.0291
     78 H           5.7512   -1.7458    0.0000 H       1  UNL1        0.0291
     79 H           7.4046   -1.9978    0.0000 H       1  UNL1        0.0608
     80 H           8.7393    4.7397    0.0000 H       1  UNL1        0.0268
     81 H           8.0258    5.1627    0.0000 H       1  UNL1        0.0268
     82 H           8.3269    1.8752    0.0000 H       1  UNL1        0.0235
     83 H           9.1764    2.0923    0.0000 H       1  UNL1        0.0235
     84 H           8.9592    2.9418    0.0000 H       1  UNL1        0.0235
     85 H           6.3429    4.4930    0.0000 H       1  UNL1        0.0235
     86 H           5.4934    4.2758    0.0000 H       1  UNL1        0.0235
     87 H           5.7105    3.4264    0.0000 H       1  UNL1        0.0235
     88 H           6.2579    4.6243    0.0000 H       1  UNL1        0.0337
     89 H           7.7393   -2.3408    0.0000 H       1  UNL1        0.0241
     90 H           8.5879   -2.5612    0.0000 H       1  UNL1        0.0241
     91 H           8.8083   -1.7125    0.0000 H       1  UNL1        0.0241
     92 H           7.3392    5.5190    0.0000 H       1  UNL1        0.0740
     93 H           5.3556    5.6246    0.0000 H       1  UNL1        0.0234
     94 H           4.8683    4.8956    0.0000 H       1  UNL1        0.0234
     95 H           5.5973    4.4083    0.0000 H       1  UNL1        0.0234
     96 H           6.0010   -2.5688    0.0000 H       1  UNL1        0.0938
     97 H           9.8937   -2.0142    0.0000 H       1  UNL1        0.2951
     98 H           5.5762    7.2085    0.0000 H       1  UNL1        0.0343
     99 H           5.7316    6.4267    0.0000 H       1  UNL1        0.0343
    100 H           6.0010   -4.8088    0.0000 H       1  UNL1        0.0675
    101 H           6.0326    8.3233    0.0000 H       1  UNL1        0.0578
    102 H           4.5981   -4.9988    0.0000 H       1  UNL1        0.0648
    103 H           4.2690   -2.5688    0.0000 H       1  UNL1        0.0647
    104 H           3.7320   -3.8788    0.0000 H       1  UNL1        0.0647
    105 H           3.8015   -2.2138    0.0000 H       1  UNL1        0.0584
    106 H           3.0044   -2.2138    0.0000 H       1  UNL1        0.0584
    107 H           8.3309    8.7994    0.0000 H       1  UNL1        0.0280
    108 H           7.9432    9.5859    0.0000 H       1  UNL1        0.0280
    109 H           7.1568    9.1982    0.0000 H       1  UNL1        0.0280
    110 H           4.5981   -5.9988    0.0000 H       1  UNL1        0.2100
    111 H           7.4040   -5.3788    0.0000 H       1  UNL1        0.0938
    112 H           3.4030   -5.3088    0.0000 H       1  UNL1        0.2100
    113 H           8.2700   -6.4988    0.0000 H       1  UNL1        0.0671
    114 H           2.0000   -2.8788    0.0000 H       1  UNL1        0.2095
    115 H           7.7331   -7.8088    0.0000 H       1  UNL1        0.0648
    116 H           5.4641   -6.8788    0.0000 H       1  UNL1        0.0741
    117 H           6.3301   -7.9988    0.0000 H       1  UNL1        0.0652
    118 H           9.1360   -5.9988    0.0000 H       1  UNL1        0.2101
    119 H           8.5991   -8.3088    0.0000 H       1  UNL1        0.2100
    120 H           7.4040   -8.9988    0.0000 H       1  UNL1        0.2100
    121 H           3.0930   -7.1519    0.0000 H       1  UNL1        0.0661
    122 H           2.8660   -7.9988    0.0000 H       1  UNL1        0.0661
    123 H           3.7130   -8.2257    0.0000 H       1  UNL1        0.0661
@<TRIPOS>BOND
     1    33     1    1
     2    42     1    1
     3     2    39    1
     4     2    97    1
     5     3    39    2
     6     4    40    1
     7     4    47    1
     8     5    42    1
     9     5    48    1
    10    44     6    1
    11    53     6    1
    12    46     7    1
    13     7   110    1
    14     8    47    2
    15    50     9    1
    16     9   112    1
    17    10    51    1
    18    10   114    1
    19    11    53    1
    20    11    56    1
    21    54    12    1
    22    12   118    1
    23    55    13    1
    24    13   119    1
    25    57    14    1
    26    14   120    1
    27    15    58    1
    28    15    59    1
    29    16    58    2
    30    17    18    1
    31    17    19    1
    32    17    20    1
    33    17    23    1
    34    18    19    1
    35    18    21    1
    36    18    25    1
    37    19    60    1
    38    19    61    1
    39    20    22    1
    40    20    26    1
    41    20    62    1
    42    21    27    1
    43    21    29    1
    44    21    63    1
    45    22    24    1
    46    22    31    1
    47    22    35    1
    48    23    28    1
    49    23    64    1
    50    23    65    1
    51    24    28    1
    52    24    30    1
    53    24    36    1
    54    25    32    1
    55    25    66    1
    56    25    67    1
    57    26    27    1
    58    26    68    1
    59    26    69    1
    60    27    70    1
    61    27    71    1
    62    28    72    1
    63    28    73    1
    64    29    33    1
    65    29    38    1
    66    29    39    1
    67    30    34    1
    68    30    37    1
    69    30    74    1
    70    31    34    1
    71    31    75    1
    72    31    76    1
    73    32    33    1
    74    32    77    1
    75    32    78    1
    76    33    79    1
    77    34    80    1
    78    34    81    1
    79    35    82    1
    80    35    83    1
    81    35    84    1
    82    36    85    1
    83    36    86    1
    84    36    87    1
    85    37    40    1
    86    37    41    1
    87    37    88    1
    88    38    89    1
    89    38    90    1
    90    38    91    1
    91    40    43    1
    92    40    92    1
    93    41    93    1
    94    41    94    1
    95    41    95    1
    96    42    44    1
    97    42    96    1
    98    43    45    1
    99    43    98    1
   100    43    99    1
   101    44    46    1
   102    44   100    1
   103    45    49    2
   104    45   101    1
   105    46    50    1
   106    46   102    1
   107    47    49    1
   108    48    50    1
   109    48    51    1
   110    48   103    1
   111    49    52    1
   112    50   104    1
   113    51   105    1
   114    51   106    1
   115    52   107    1
   116    52   108    1
   117    52   109    1
   118    53    54    1
   119    53   111    1
   120    54    55    1
   121    54   113    1
   122    55    57    1
   123    55   115    1
   124    56    57    1
   125    56    58    1
   126    56   116    1
   127    57   117    1
   128    59   121    1
   129    59   122    1
   130    59   123    1
