@<TRIPOS>MOLECULE
IMPHY017743
 23 23 0 0 0
SMALL
GASTEIGER

@<TRIPOS>ATOM
      1 O           2.0000   -1.9050    0.0000 O.3     1  UNL1       -0.4951
      2 O           4.5981    2.5950    0.0000 O.3     1  UNL1       -0.3947
      3 C           3.7320    0.0950    0.0000 C.ar    1  UNL1       -0.0418
      4 C           3.7320    1.0950    0.0000 C.3     1  UNL1       -0.0043
      5 C           2.8660   -0.4050    0.0000 C.ar    1  UNL1       -0.0167
      6 C           4.5981    1.5950    0.0000 C.3     1  UNL1        0.0482
      7 C           4.5981   -0.4050    0.0000 C.ar    1  UNL1       -0.0583
      8 C           2.8660   -1.4050    0.0000 C.ar    1  UNL1        0.1204
      9 C           4.5981   -1.4050    0.0000 C.ar    1  UNL1       -0.0580
     10 C           3.7320   -1.9050    0.0000 C.ar    1  UNL1       -0.0199
     11 C           2.0000   -2.9050    0.0000 C.3     1  UNL1        0.0788
     12 H           3.5200    1.6776    0.0000 H       1  UNL1        0.0335
     13 H           3.1215    0.9873    0.0000 H       1  UNL1        0.0335
     14 H           2.3291   -0.0950    0.0000 H       1  UNL1        0.0657
     15 H           4.8101    1.0124    0.0000 H       1  UNL1        0.0560
     16 H           5.2087    1.7027    0.0000 H       1  UNL1        0.0560
     17 H           5.1350   -0.0950    0.0000 H       1  UNL1        0.0620
     18 H           5.1350   -1.7150    0.0000 H       1  UNL1        0.0619
     19 H           3.7320   -2.5250    0.0000 H       1  UNL1        0.0654
     20 H           5.1350    2.9050    0.0000 H       1  UNL1        0.2094
     21 H           1.3800   -2.9050    0.0000 H       1  UNL1        0.0660
     22 H           2.0000   -3.5250    0.0000 H       1  UNL1        0.0660
     23 H           2.6200   -2.9050    0.0000 H       1  UNL1        0.0660
@<TRIPOS>BOND
     1     1     8    1
     2     1    11    1
     3     2     6    1
     4     2    20    1
     5     3     4    1
     6     3     5   ar
     7     3     7   ar
     8     4     6    1
     9     4    12    1
    10     4    13    1
    11     5     8   ar
    12     5    14    1
    13     6    15    1
    14     6    16    1
    15     7     9   ar
    16     7    17    1
    17     8    10   ar
    18     9    10   ar
    19     9    18    1
    20    10    19    1
    21    11    21    1
    22    11    22    1
    23    11    23    1
