@<TRIPOS>MOLECULE
IMPHY016162
 20 21 0 0 0
SMALL
GASTEIGER

@<TRIPOS>ATOM
      1 N           5.5321   -0.0173    0.0000 N.ar    1  UNL1        0.0000
      2 N           5.5321    0.9827    0.0000 N.ar    1  UNL1        0.0000
      3 C           3.8000   -0.0173    0.0000 C.ar    1  UNL1        0.0000
      4 C           3.8000    0.9827    0.0000 C.ar    1  UNL1        0.0000
      5 C           2.9061   -0.5520    0.0000 C.ar    1  UNL1        0.0000
      6 C           2.9061    1.5173    0.0000 C.ar    1  UNL1        0.0000
      7 C           4.6660    1.4827    0.0000 C.ar    1  UNL1        0.0000
      8 C           4.6660   -1.5173    0.0000 C.3     1  UNL1        0.0000
      9 C           2.0000   -0.0381    0.0000 C.ar    1  UNL1        0.0000
     10 C           2.0000    1.0035    0.0000 C.ar    1  UNL1        0.0000
     11 B           4.6660   -0.5173    0.0000 B       1  UNL1        0.0000
     12 H           2.9132   -1.1720    0.0000 H       1  UNL1        0.0000
     13 H           2.9132    2.1373    0.0000 H       1  UNL1        0.0000
     14 H           4.6660    2.1027    0.0000 H       1  UNL1        0.0000
     15 H           6.0690   -0.3273    0.0000 H       1  UNL1        0.0000
     16 H           4.0460   -1.5173    0.0000 H       1  UNL1        0.0000
     17 H           4.6660   -2.1373    0.0000 H       1  UNL1        0.0000
     18 H           5.2860   -1.5173    0.0000 H       1  UNL1        0.0000
     19 H           1.4643   -0.3502    0.0000 H       1  UNL1        0.0000
     20 H           1.4643    1.3156    0.0000 H       1  UNL1        0.0000
@<TRIPOS>BOND
     1     1     2   ar
     2     1    11   ar
     3     1    15    1
     4     2     7   ar
     5     3     4   ar
     6     3     5   ar
     7     3    11   ar
     8     4     6   ar
     9     4     7   ar
    10     5     9   ar
    11     5    12    1
    12     6    10   ar
    13     6    13    1
    14     7    14    1
    15     8    11    1
    16     8    16    1
    17     8    17    1
    18     8    18    1
    19     9    10   ar
    20     9    19    1
    21    10    20    1
