@<TRIPOS>MOLECULE
IMPHY006448
 31 33 0 0 0
SMALL
GASTEIGER

@<TRIPOS>ATOM
      1 O           6.0682   -0.0950    0.0000 O.2     1  UNL1       -0.4545
      2 O           6.0682    2.9050    0.0000 O.2     1  UNL1       -0.2870
      3 O          10.3984    0.4050    0.0000 O.3     1  UNL1       -0.5032
      4 O           8.6663   -2.5950    0.0000 O.3     1  UNL1       -0.5032
      5 O           2.5381   -0.1192    0.0000 O.3     1  UNL1       -0.5066
      6 O          10.3984   -1.5950    0.0000 O.3     1  UNL1       -0.5009
      7 C           6.9343    0.4050    0.0000 C.ar    1  UNL1        0.1395
      8 C           5.2022    1.4050    0.0000 C.ar    1  UNL1        0.0642
      9 C           7.8003   -0.0950    0.0000 C.ar    1  UNL1        0.0245
     10 C           5.2022    0.4050    0.0000 C.ar    1  UNL1        0.1427
     11 C           6.9343    1.4050    0.0000 C.ar    1  UNL1        0.0287
     12 C           6.0682    1.9050    0.0000 C.ar    1  UNL1        0.1931
     13 C           7.8003   -1.0950    0.0000 C.ar    1  UNL1       -0.0056
     14 C           8.6663    0.4050    0.0000 C.ar    1  UNL1       -0.0056
     15 C           4.3083    1.9397    0.0000 C.ar    1  UNL1       -0.0439
     16 C           4.3083   -0.1297    0.0000 C.ar    1  UNL1        0.0229
     17 C           9.5323   -0.0950    0.0000 C.ar    1  UNL1        0.1626
     18 C           8.6663   -1.5950    0.0000 C.ar    1  UNL1        0.1626
     19 C           3.4022    0.3842    0.0000 C.ar    1  UNL1        0.1204
     20 C           3.4022    1.4258    0.0000 C.ar    1  UNL1       -0.0193
     21 C           9.5323   -1.0950    0.0000 C.ar    1  UNL1        0.2006
     22 H           7.4712    1.7150    0.0000 H       1  UNL1        0.0693
     23 H           7.2634   -1.4050    0.0000 H       1  UNL1        0.0662
     24 H           8.6663    1.0250    0.0000 H       1  UNL1        0.0662
     25 H           4.3154    2.5596    0.0000 H       1  UNL1        0.0627
     26 H           4.3154   -0.7496    0.0000 H       1  UNL1        0.0691
     27 H           2.8665    1.7379    0.0000 H       1  UNL1        0.0654
     28 H          10.3984    1.0250    0.0000 H       1  UNL1        0.2923
     29 H           8.1294   -2.9050    0.0000 H       1  UNL1        0.2923
     30 H           2.0000    0.1888    0.0000 H       1  UNL1        0.2921
     31 H          10.9353   -1.2850    0.0000 H       1  UNL1        0.2924
@<TRIPOS>BOND
     1     1     7   ar
     2     1    10   ar
     3     2    12    2
     4     3    17    1
     5     3    28    1
     6     4    18    1
     7     4    29    1
     8     5    19    1
     9     5    30    1
    10     6    21    1
    11     6    31    1
    12     7     9    1
    13     7    11   ar
    14     8    10   ar
    15     8    12   ar
    16     8    15   ar
    17     9    13   ar
    18     9    14   ar
    19    10    16   ar
    20    11    12   ar
    21    11    22    1
    22    13    18   ar
    23    13    23    1
    24    14    17   ar
    25    14    24    1
    26    15    20   ar
    27    15    25    1
    28    16    19   ar
    29    16    26    1
    30    17    21   ar
    31    18    21   ar
    32    19    20   ar
    33    20    27    1
