@<TRIPOS>MOLECULE
IMPHY010062
 145 153 0 0 0
SMALL
GASTEIGER

@<TRIPOS>ATOM
      1 O           7.5126    7.7357    0.0000 O.3     1  UNL1       -0.3876
      2 O           4.9431    9.1667    0.0000 O.3     1  UNL1       -0.3911
      3 O          11.1364    3.6052    0.0000 O.3     1  UNL1       -0.3480
      4 O           2.4576    7.3490    0.0000 O.3     1  UNL1       -0.4571
      5 O          12.0024    2.1052    0.0000 O.3     1  UNL1       -0.3456
      6 O           2.0000    5.6267    0.0000 O.2     1  UNL1       -0.2456
      7 O           9.4043    0.6052    0.0000 O.3     1  UNL1       -0.3890
      8 O          11.1364   -0.3948    0.0000 O.3     1  UNL1       -0.3429
      9 O          12.8684   -0.3948    0.0000 O.3     1  UNL1       -0.3456
     10 O          14.6005   -2.3948    0.0000 O.3     1  UNL1       -0.3429
     11 O          12.8684   -3.3948    0.0000 O.3     1  UNL1       -0.3890
     12 O          13.7345   -3.8948    0.0000 O.3     1  UNL1       -0.3456
     13 O          14.6005   -6.3948    0.0000 O.3     1  UNL1       -0.3392
     14 O          16.3325   -5.3948    0.0000 O.3     1  UNL1       -0.4587
     15 O          12.8684   -6.3948    0.0000 O.3     1  UNL1       -0.3405
     16 O          14.6005   -8.3948    0.0000 O.3     1  UNL1       -0.3841
     17 O          12.8684   -9.3948    0.0000 O.3     1  UNL1       -0.3864
     18 O          11.1364   -8.3948    0.0000 O.3     1  UNL1       -0.3865
     19 O          10.2704   -6.8948    0.0000 O.3     1  UNL1       -0.3924
     20 O          17.1986   -3.8948    0.0000 O.2     1  UNL1       -0.2512
     21 C           6.6485    7.2323    0.0000 C.3     1  UNL1        0.0775
     22 C           7.5164    6.7357    0.0000 C.3     1  UNL1       -0.0082
     23 C           5.7844    6.7290    0.0000 C.3     1  UNL1        0.0060
     24 C           7.5203    5.7357    0.0000 C.3     1  UNL1       -0.0299
     25 C           8.4163    5.2045    0.0000 C.3     1  UNL1       -0.0259
     26 C           9.3203    5.7218    0.0000 C.3     1  UNL1       -0.0330
     27 C           5.0448    7.3932    0.0000 C.3     1  UNL1        0.0179
     28 C           5.7882    5.7290    0.0000 C.3     1  UNL1       -0.0441
     29 C           6.6562    5.2323    0.0000 C.3     1  UNL1       -0.0488
     30 C           6.4355    8.2033    0.0000 C.3     1  UNL1        0.0035
     31 C           8.4083    7.2738    0.0000 C.3     1  UNL1       -0.0470
     32 C           5.4464    8.3026    0.0000 C.3     1  UNL1        0.0651
     33 C           9.3163    6.7634    0.0000 C.3     1  UNL1       -0.0493
     34 C           8.3954    4.1197    0.0000 C.3     1  UNL1       -0.0448
     35 C           4.9203    6.2256    0.0000 C.3     1  UNL1       -0.0563
     36 C          10.2662    5.1902    0.0000 C.3     1  UNL1       -0.0232
     37 C           7.5483    4.7078    0.0000 C.3     1  UNL1       -0.0590
     38 C           9.3286    3.5663    0.0000 C.3     1  UNL1       -0.0260
     39 C          10.2704    4.1052    0.0000 C.3     1  UNL1        0.0620
     40 C           4.0671    7.1832    0.0000 C.2     1  UNL1       -0.0198
     41 C           3.3225    7.8508    0.0000 C.3     1  UNL1        0.1148
     42 C           3.6623    6.2688    0.0000 C.2     1  UNL1        0.0253
     43 C           2.6676    6.3712    0.0000 C.2     1  UNL1        0.3323
     44 C          11.1364    2.6052    0.0000 C.3     1  UNL1        0.1624
     45 C          10.2704    2.1052    0.0000 C.3     1  UNL1        0.0270
     46 C          10.2704    1.1052    0.0000 C.3     1  UNL1        0.0884
     47 C          12.0024    1.1052    0.0000 C.3     1  UNL1        0.0875
     48 C          11.1364    0.6052    0.0000 C.3     1  UNL1        0.1134
     49 C          12.8684    0.6052    0.0000 C.3     1  UNL1       -0.0361
     50 C          12.0024   -0.8948    0.0000 C.3     1  UNL1        0.1626
     51 C          12.0024   -1.8948    0.0000 C.3     1  UNL1        0.0270
     52 C          12.8684   -2.3948    0.0000 C.3     1  UNL1        0.0884
     53 C          13.7345   -0.8948    0.0000 C.3     1  UNL1        0.0875
     54 C          13.7345   -1.8948    0.0000 C.3     1  UNL1        0.1134
     55 C          14.6005   -0.3948    0.0000 C.3     1  UNL1       -0.0361
     56 C          14.6005   -3.3948    0.0000 C.3     1  UNL1        0.1636
     57 C          15.4665   -3.8948    0.0000 C.3     1  UNL1        0.0382
     58 C          15.4665   -4.8948    0.0000 C.3     1  UNL1        0.1361
     59 C          14.6005   -5.3948    0.0000 C.3     1  UNL1        0.1245
     60 C          13.7345   -4.8948    0.0000 C.3     1  UNL1        0.0885
     61 C          12.8684   -5.3948    0.0000 C.3     1  UNL1       -0.0360
     62 C          13.7345   -6.8948    0.0000 C.3     1  UNL1        0.1885
     63 C          13.7345   -7.8948    0.0000 C.3     1  UNL1        0.1341
     64 C          12.8684   -8.3948    0.0000 C.3     1  UNL1        0.1141
     65 C          12.0024   -7.8948    0.0000 C.3     1  UNL1        0.1119
     66 C          12.0024   -6.8948    0.0000 C.3     1  UNL1        0.1130
     67 C          17.1986   -4.8948    0.0000 C.2     1  UNL1        0.3043
     68 C          11.1364   -6.3948    0.0000 C.3     1  UNL1        0.0730
     69 C          18.0646   -5.3948    0.0000 C.3     1  UNL1        0.0332
     70 H           8.2574    6.3192    0.0000 H       1  UNL1        0.0331
     71 H           8.2580    6.1578    0.0000 H       1  UNL1        0.0310
     72 H          10.0532    6.1525    0.0000 H       1  UNL1        0.0307
     73 H           4.6534    7.8741    0.0000 H       1  UNL1        0.0378
     74 H           5.1772    5.8343    0.0000 H       1  UNL1        0.0272
     75 H           5.5784    5.1456    0.0000 H       1  UNL1        0.0272
     76 H           6.2595    4.7559    0.0000 H       1  UNL1        0.0268
     77 H           7.0565    4.7589    0.0000 H       1  UNL1        0.0268
     78 H           7.0517    8.2718    0.0000 H       1  UNL1        0.0318
     79 H           6.4322    8.8233    0.0000 H       1  UNL1        0.0318
     80 H           8.8001    7.7543    0.0000 H       1  UNL1        0.0269
     81 H           8.0019    7.7420    0.0000 H       1  UNL1        0.0269
     82 H           5.7819    8.8240    0.0000 H       1  UNL1        0.0600
     83 H           9.9276    6.6597    0.0000 H       1  UNL1        0.0268
     84 H           9.5231    7.3479    0.0000 H       1  UNL1        0.0268
     85 H           7.7866    4.2375    0.0000 H       1  UNL1        0.0271
     86 H           8.1751    3.5401    0.0000 H       1  UNL1        0.0271
     87 H           4.6082    6.7614    0.0000 H       1  UNL1        0.0236
     88 H           4.3845    5.9136    0.0000 H       1  UNL1        0.0236
     89 H           5.2324    5.6899    0.0000 H       1  UNL1        0.0236
     90 H          10.8774    5.0865    0.0000 H       1  UNL1        0.0293
     91 H          10.4730    5.7747    0.0000 H       1  UNL1        0.0293
     92 H           7.2404    5.2459    0.0000 H       1  UNL1        0.0235
     93 H           7.0102    4.3999    0.0000 H       1  UNL1        0.0235
     94 H           7.8562    4.1697    0.0000 H       1  UNL1        0.0235
     95 H           8.9259    3.0950    0.0000 H       1  UNL1        0.0290
     96 H           9.7241    3.0888    0.0000 H       1  UNL1        0.0290
     97 H          10.8067    4.4162    0.0000 H       1  UNL1        0.0597
     98 H           7.5102    8.3556    0.0000 H       1  UNL1        0.2102
     99 H           5.2510    9.7048    0.0000 H       1  UNL1        0.2098
    100 H           3.7824    8.2666    0.0000 H       1  UNL1        0.0746
    101 H           2.9570    8.3516    0.0000 H       1  UNL1        0.0746
    102 H           3.9734    5.7326    0.0000 H       1  UNL1        0.0689
    103 H          10.5995    2.9152    0.0000 H       1  UNL1        0.0910
    104 H          10.0583    2.6878    0.0000 H       1  UNL1        0.0340
    105 H           9.6598    1.9976    0.0000 H       1  UNL1        0.0340
    106 H           9.7334    1.4152    0.0000 H       1  UNL1        0.0622
    107 H          12.5394    1.4152    0.0000 H       1  UNL1        0.0621
    108 H          10.5995    0.2952    0.0000 H       1  UNL1        0.0649
    109 H          12.5584    0.0683    0.0000 H       1  UNL1        0.0255
    110 H          13.4054    0.2952    0.0000 H       1  UNL1        0.0255
    111 H          13.1784    1.1422    0.0000 H       1  UNL1        0.0255
    112 H           8.8674    0.9152    0.0000 H       1  UNL1        0.2099
    113 H          12.0024   -0.2748    0.0000 H       1  UNL1        0.0910
    114 H          11.3918   -1.7871    0.0000 H       1  UNL1        0.0340
    115 H          11.7904   -2.4774    0.0000 H       1  UNL1        0.0340
    116 H          12.3315   -2.7048    0.0000 H       1  UNL1        0.0622
    117 H          13.7345   -0.2748    0.0000 H       1  UNL1        0.0621
    118 H          14.2714   -1.5848    0.0000 H       1  UNL1        0.0649
    119 H          14.9105   -0.9317    0.0000 H       1  UNL1        0.0255
    120 H          15.1374   -0.0848    0.0000 H       1  UNL1        0.0255
    121 H          14.2905    0.1421    0.0000 H       1  UNL1        0.0255
    122 H          12.3315   -3.7048    0.0000 H       1  UNL1        0.2099
    123 H          14.0636   -3.0848    0.0000 H       1  UNL1        0.0911
    124 H          16.0771   -4.0024    0.0000 H       1  UNL1        0.0351
    125 H          15.6786   -3.3122    0.0000 H       1  UNL1        0.0351
    126 H          16.0035   -4.5848    0.0000 H       1  UNL1        0.0763
    127 H          14.0636   -5.7048    0.0000 H       1  UNL1        0.0660
    128 H          13.1975   -4.5848    0.0000 H       1  UNL1        0.0621
    129 H          12.5584   -4.8578    0.0000 H       1  UNL1        0.0255
    130 H          12.3315   -5.7048    0.0000 H       1  UNL1        0.0255
    131 H          13.1784   -5.9317    0.0000 H       1  UNL1        0.0255
    132 H          14.2714   -7.2048    0.0000 H       1  UNL1        0.0938
    133 H          13.7345   -8.5148    0.0000 H       1  UNL1        0.0671
    134 H          13.4054   -8.7048    0.0000 H       1  UNL1        0.0648
    135 H          12.0024   -8.5148    0.0000 H       1  UNL1        0.0647
    136 H          12.0024   -6.2748    0.0000 H       1  UNL1        0.0647
    137 H          11.5349   -5.9198    0.0000 H       1  UNL1        0.0584
    138 H          10.7379   -5.9198    0.0000 H       1  UNL1        0.0584
    139 H          15.1374   -8.0848    0.0000 H       1  UNL1        0.2101
    140 H          13.4054   -9.7048    0.0000 H       1  UNL1        0.2100
    141 H          11.1364   -9.0148    0.0000 H       1  UNL1        0.2100
    142 H          17.7546   -5.9317    0.0000 H       1  UNL1        0.0342
    143 H          18.6015   -5.7048    0.0000 H       1  UNL1        0.0342
    144 H          18.3746   -4.8578    0.0000 H       1  UNL1        0.0342
    145 H           9.7334   -6.5848    0.0000 H       1  UNL1        0.2095
@<TRIPOS>BOND
     1    21     1    1
     2     1    98    1
     3    32     2    1
     4     2    99    1
     5    39     3    1
     6    44     3    1
     7     4    41    1
     8     4    43    1
     9     5    44    1
    10     5    47    1
    11     6    43    2
    12    46     7    1
    13     7   112    1
    14    48     8    1
    15    50     8    1
    16     9    50    1
    17     9    53    1
    18    54    10    1
    19    56    10    1
    20    52    11    1
    21    11   122    1
    22    12    56    1
    23    12    60    1
    24    59    13    1
    25    62    13    1
    26    58    14    1
    27    14    67    1
    28    15    62    1
    29    15    66    1
    30    63    16    1
    31    16   139    1
    32    64    17    1
    33    17   140    1
    34    65    18    1
    35    18   141    1
    36    19    68    1
    37    19   145    1
    38    20    67    2
    39    21    22    1
    40    21    23    1
    41    21    30    1
    42    22    24    1
    43    22    31    1
    44    22    70    1
    45    23    27    1
    46    23    28    1
    47    23    35    1
    48    24    25    1
    49    24    29    1
    50    24    71    1
    51    25    26    1
    52    25    34    1
    53    25    37    1
    54    26    33    1
    55    26    36    1
    56    26    72    1
    57    27    32    1
    58    27    40    1
    59    27    73    1
    60    28    29    1
    61    28    74    1
    62    28    75    1
    63    29    76    1
    64    29    77    1
    65    30    32    1
    66    30    78    1
    67    30    79    1
    68    31    33    1
    69    31    80    1
    70    31    81    1
    71    32    82    1
    72    33    83    1
    73    33    84    1
    74    34    38    1
    75    34    85    1
    76    34    86    1
    77    35    87    1
    78    35    88    1
    79    35    89    1
    80    36    39    1
    81    36    90    1
    82    36    91    1
    83    37    92    1
    84    37    93    1
    85    37    94    1
    86    38    39    1
    87    38    95    1
    88    38    96    1
    89    39    97    1
    90    40    41    1
    91    40    42    2
    92    41   100    1
    93    41   101    1
    94    42    43    1
    95    42   102    1
    96    44    45    1
    97    44   103    1
    98    45    46    1
    99    45   104    1
   100    45   105    1
   101    46    48    1
   102    46   106    1
   103    47    48    1
   104    47    49    1
   105    47   107    1
   106    48   108    1
   107    49   109    1
   108    49   110    1
   109    49   111    1
   110    50    51    1
   111    50   113    1
   112    51    52    1
   113    51   114    1
   114    51   115    1
   115    52    54    1
   116    52   116    1
   117    53    54    1
   118    53    55    1
   119    53   117    1
   120    54   118    1
   121    55   119    1
   122    55   120    1
   123    55   121    1
   124    56    57    1
   125    56   123    1
   126    57    58    1
   127    57   124    1
   128    57   125    1
   129    58    59    1
   130    58   126    1
   131    59    60    1
   132    59   127    1
   133    60    61    1
   134    60   128    1
   135    61   129    1
   136    61   130    1
   137    61   131    1
   138    62    63    1
   139    62   132    1
   140    63    64    1
   141    63   133    1
   142    64    65    1
   143    64   134    1
   144    65    66    1
   145    65   135    1
   146    66    68    1
   147    66   136    1
   148    67    69    1
   149    68   137    1
   150    68   138    1
   151    69   142    1
   152    69   143    1
   153    69   144    1
