@<TRIPOS>MOLECULE
IMPHY014245
 79 83 0 0 0
SMALL
GASTEIGER

@<TRIPOS>ATOM
      1 O           2.5357   -2.6574    0.0000 O.3     1  UNL1       -0.3912
      2 O          11.4608    0.4291    0.0000 O.3     1  UNL1       -0.4802
      3 O          10.6064   -1.0775    0.0000 O.2     1  UNL1       -0.2504
      4 C           7.0628   -1.1050    0.0000 C.3     1  UNL1       -0.0194
      5 C           5.2868   -1.1119    0.0000 C.3     1  UNL1       -0.0250
      6 C           6.1968   -0.6051    0.0000 C.3     1  UNL1       -0.0257
      7 C           7.9288   -0.6051    0.0000 C.3     1  UNL1       -0.0048
      8 C           5.2787   -2.1535    0.0000 C.3     1  UNL1       -0.0278
      9 C           7.0789   -2.1466    0.0000 C.3     1  UNL1       -0.0463
     10 C           6.1808   -2.6743    0.0000 C.3     1  UNL1       -0.0486
     11 C           4.3433   -2.7032    0.0000 C.3     1  UNL1       -0.0056
     12 C           4.3599   -0.5478    0.0000 C.3     1  UNL1       -0.0447
     13 C           7.9288    0.3949    0.0000 C.2     1  UNL1       -0.0589
     14 C           6.1968    0.3949    0.0000 C.3     1  UNL1       -0.0306
     15 C           8.8228   -1.1397    0.0000 C.3     1  UNL1       -0.0424
     16 C           8.8228    0.9296    0.0000 C.3     1  UNL1        0.0174
     17 C           7.7056   -1.8711    0.0000 C.3     1  UNL1       -0.0585
     18 C           3.4037   -2.1607    0.0000 C.3     1  UNL1        0.0606
     19 C           9.7288    0.4158    0.0000 C.3     1  UNL1        0.0780
     20 C           5.2945   -0.1119    0.0000 C.3     1  UNL1       -0.0590
     21 C           3.4120   -1.0758    0.0000 C.3     1  UNL1       -0.0258
     22 C           7.0628    0.8949    0.0000 C.2     1  UNL1       -0.0833
     23 C           9.7288   -0.6259    0.0000 C.3     1  UNL1       -0.0356
     24 C           8.2709   -1.5447    0.0000 C.3     1  UNL1       -0.0553
     25 C           3.8467   -3.5712    0.0000 C.3     1  UNL1       -0.0572
     26 C           4.8466   -3.5673    0.0000 C.3     1  UNL1       -0.0572
     27 C          10.6726    0.9510    0.0000 C.3     1  UNL1       -0.0327
     28 C           8.7977    2.0143    0.0000 C.2     1  UNL1       -0.0655
     29 C          10.5987   -0.0775    0.0000 C.2     1  UNL1        0.3118
     30 C          10.6726    2.0360    0.0000 C.3     1  UNL1       -0.0307
     31 C           9.7288    2.5712    0.0000 C.2     1  UNL1       -0.0730
     32 C           7.9222    2.4975    0.0000 C.3     1  UNL1       -0.0429
     33 C           9.7173    3.5712    0.0000 C.3     1  UNL1       -0.0435
     34 H           6.7337   -0.2951    0.0000 H       1  UNL1        0.0315
     35 H           5.2811   -2.7735    0.0000 H       1  UNL1        0.0312
     36 H           7.2969   -2.7270    0.0000 H       1  UNL1        0.0271
     37 H           7.6880   -2.0311    0.0000 H       1  UNL1        0.0271
     38 H           5.7835   -3.1503    0.0000 H       1  UNL1        0.0268
     39 H           6.5818   -3.1472    0.0000 H       1  UNL1        0.0268
     40 H           4.7681   -0.0812    0.0000 H       1  UNL1        0.0271
     41 H           3.9700   -0.0658    0.0000 H       1  UNL1        0.0271
     42 H           5.9847    0.9776    0.0000 H       1  UNL1        0.0310
     43 H           5.5862    0.2873    0.0000 H       1  UNL1        0.0310
     44 H           8.4182   -1.6095    0.0000 H       1  UNL1        0.0274
     45 H           9.2164   -1.6187    0.0000 H       1  UNL1        0.0274
     46 H           9.3549    1.2478    0.0000 H       1  UNL1        0.0402
     47 H           7.2306   -2.2696    0.0000 H       1  UNL1        0.0235
     48 H           8.1041   -2.3460    0.0000 H       1  UNL1        0.0235
     49 H           8.1805   -1.4726    0.0000 H       1  UNL1        0.0235
     50 H           3.4025   -2.7807    0.0000 H       1  UNL1        0.0599
     51 H           5.9145   -0.1167    0.0000 H       1  UNL1        0.0235
     52 H           5.2993    0.5081    0.0000 H       1  UNL1        0.0235
     53 H           4.6745   -0.1071    0.0000 H       1  UNL1        0.0235
     54 H           3.2075   -0.4905    0.0000 H       1  UNL1        0.0290
     55 H           2.8004   -1.1771    0.0000 H       1  UNL1        0.0290
     56 H           7.0628    1.5150    0.0000 H       1  UNL1        0.0572
     57 H           9.9379   -1.2096    0.0000 H       1  UNL1        0.0276
     58 H          10.3397   -0.5198    0.0000 H       1  UNL1        0.0276
     59 H           7.6884   -1.7568    0.0000 H       1  UNL1        0.0238
     60 H           8.4830   -2.1273    0.0000 H       1  UNL1        0.0238
     61 H           8.8535   -1.3326    0.0000 H       1  UNL1        0.0238
     62 H           3.3085   -3.2632    0.0000 H       1  UNL1        0.0236
     63 H           3.5387   -4.1093    0.0000 H       1  UNL1        0.0236
     64 H           4.3848   -3.8791    0.0000 H       1  UNL1        0.0236
     65 H           4.3109   -3.8794    0.0000 H       1  UNL1        0.0236
     66 H           5.1587   -4.1030    0.0000 H       1  UNL1        0.0236
     67 H           5.3824   -3.2553    0.0000 H       1  UNL1        0.0236
     68 H          10.8817    0.3673    0.0000 H       1  UNL1        0.0279
     69 H          11.2835    1.0571    0.0000 H       1  UNL1        0.0279
     70 H          11.2835    1.9299    0.0000 H       1  UNL1        0.0310
     71 H          10.8817    2.6197    0.0000 H       1  UNL1        0.0310
     72 H           2.0000   -2.3453    0.0000 H       1  UNL1        0.2098
     73 H           8.2218    3.0403    0.0000 H       1  UNL1        0.0275
     74 H           7.3794    2.7971    0.0000 H       1  UNL1        0.0275
     75 H           7.6226    1.9547    0.0000 H       1  UNL1        0.0275
     76 H          10.3372    3.5783    0.0000 H       1  UNL1        0.0274
     77 H           9.7101    4.1911    0.0000 H       1  UNL1        0.0274
     78 H           9.0973    3.5640    0.0000 H       1  UNL1        0.0274
     79 H          12.0001    0.1233    0.0000 H       1  UNL1        0.2951
@<TRIPOS>BOND
     1     1    18    1
     2     1    72    1
     3     2    29    1
     4     2    79    1
     5     3    29    2
     6     4     6    1
     7     4     7    1
     8     4     9    1
     9     4    17    1
    10     5     6    1
    11     5     8    1
    12     5    12    1
    13     5    20    1
    14     6    14    1
    15     6    34    1
    16     7    13    1
    17     7    15    1
    18     7    24    1
    19     8    10    1
    20     8    11    1
    21     8    35    1
    22     9    10    1
    23     9    36    1
    24     9    37    1
    25    10    38    1
    26    10    39    1
    27    11    18    1
    28    11    25    1
    29    11    26    1
    30    12    21    1
    31    12    40    1
    32    12    41    1
    33    13    16    1
    34    13    22    2
    35    14    22    1
    36    14    42    1
    37    14    43    1
    38    15    23    1
    39    15    44    1
    40    15    45    1
    41    16    19    1
    42    16    28    1
    43    16    46    1
    44    17    47    1
    45    17    48    1
    46    17    49    1
    47    18    21    1
    48    18    50    1
    49    19    23    1
    50    19    27    1
    51    19    29    1
    52    20    51    1
    53    20    52    1
    54    20    53    1
    55    21    54    1
    56    21    55    1
    57    22    56    1
    58    23    57    1
    59    23    58    1
    60    24    59    1
    61    24    60    1
    62    24    61    1
    63    25    62    1
    64    25    63    1
    65    25    64    1
    66    26    65    1
    67    26    66    1
    68    26    67    1
    69    27    30    1
    70    27    68    1
    71    27    69    1
    72    28    31    2
    73    28    32    1
    74    30    31    1
    75    30    70    1
    76    30    71    1
    77    31    33    1
    78    32    73    1
    79    32    74    1
    80    32    75    1
    81    33    76    1
    82    33    77    1
    83    33    78    1
