@<TRIPOS>MOLECULE
IMPHY000628
 18 17 0 0 0
SMALL
GASTEIGER

@<TRIPOS>ATOM
      1 C           1.7313    1.4975    0.0000 C.2     1  UNL1        0.0861
      2 C           0.8636    0.9983    0.0000 C.2     1  UNL1        0.3880
      3 C           2.5989    0.9983    0.0000 C.2     1  UNL1        0.0065
      4 O           0.0000    1.4975    0.0000 O.co2   1  UNL1       -0.2405
      5 O           0.8636    0.0000    0.0000 O.co2   1  UNL1       -0.2405
      6 C           3.4665    1.4975    0.0000 C.2     1  UNL1       -0.0044
      7 C           4.3301    0.9983    0.0000 C.2     1  UNL1       -0.0261
      8 C           5.1977    1.4975    0.0000 C.3     1  UNL1        0.0260
      9 C           6.0654    0.9983    0.0000 C.3     1  UNL1        0.0047
     10 C           6.9330    1.4975    0.0000 C.3     1  UNL1        0.0003
     11 C           7.7966    0.9983    0.0000 C.3     1  UNL1        0.0000
     12 C           8.6642    1.4975    0.0000 C.3     1  UNL1        0.0000
     13 C           9.5318    0.9983    0.0000 C.3     1  UNL1        0.0000
     14 C          10.3994    1.4975    0.0000 C.3     1  UNL1        0.0000
     15 C          11.2631    0.9983    0.0000 C.3     1  UNL1        0.0000
     16 C          12.1307    1.4975    0.0000 C.3     1  UNL1        0.0000
     17 C          12.9983    0.9983    0.0000 C.3     1  UNL1        0.0000
     18 C          13.8659    1.4975    0.0000 C.3     1  UNL1        0.0000
@<TRIPOS>BOND
     1     1     2    1
     2     1     3    2
     3     2     4   ar
     4     2     5   ar
     5     3     6    1
     6     6     7    2
     7     7     8    1
     8     8     9    1
     9     9    10    1
    10    10    11    1
    11    11    12    1
    12    12    13    1
    13    13    14    1
    14    14    15    1
    15    15    16    1
    16    16    17    1
    17    17    18    1
