@<TRIPOS>MOLECULE
IMPHY002646
 58 61 0 0 0
SMALL
GASTEIGER

@<TRIPOS>ATOM
      1 O          12.5263    1.8995    0.0000 O.3     1  UNL1       -0.4833
      2 O          14.2583   -0.1005    0.0000 O.3     1  UNL1       -0.3875
      3 O          10.7779   -1.1351    0.0000 O.3     1  UNL1       -0.5058
      4 O           8.0901   -1.6802    0.0000 O.2     1  UNL1       -0.4618
      5 O           8.0785    1.3891    0.0000 O.2     1  UNL1       -0.2863
      6 O           6.3301    1.3545    0.0000 O.3     1  UNL1       -0.5055
      7 O           4.5981   -1.6455    0.0000 O.3     1  UNL1       -0.5062
      8 C          13.3923    1.3995    0.0000 C.3     1  UNL1        0.1310
      9 C          13.3923    0.3995    0.0000 C.3     1  UNL1        0.0984
     10 C          12.5263   -0.1005    0.0000 C.3     1  UNL1        0.0091
     11 C          11.6603    0.3995    0.0000 C.ar    1  UNL1        0.0388
     12 C          11.6603    1.3995    0.0000 C.ar    1  UNL1        0.1282
     13 C          14.3923    1.3995    0.0000 C.3     1  UNL1       -0.0227
     14 C          13.8923    2.2655    0.0000 C.3     1  UNL1       -0.0227
     15 C          10.7663   -0.1352    0.0000 C.ar    1  UNL1        0.1315
     16 C           9.8602    0.3787    0.0000 C.ar    1  UNL1        0.0307
     17 C          10.7663    1.9341    0.0000 C.ar    1  UNL1       -0.0188
     18 C           9.8602    1.4203    0.0000 C.ar    1  UNL1       -0.0469
     19 C           8.9962   -0.1247    0.0000 C.ar    1  UNL1        0.0679
     20 C           8.0901    0.3892    0.0000 C.ar    1  UNL1        0.2038
     21 C           7.1962   -0.1455    0.0000 C.ar    1  UNL1        0.1063
     22 C           8.9962   -1.1663    0.0000 C.ar    1  UNL1        0.1040
     23 C           7.1962   -1.1455    0.0000 C.ar    1  UNL1        0.1454
     24 C           6.3301    0.3545    0.0000 C.ar    1  UNL1        0.1381
     25 C           5.4641   -0.1455    0.0000 C.ar    1  UNL1        0.0400
     26 C           6.3301   -1.6455    0.0000 C.ar    1  UNL1        0.0234
     27 C           5.4641   -1.1455    0.0000 C.ar    1  UNL1        0.1273
     28 C           4.5981    0.3545    0.0000 C.3     1  UNL1       -0.0023
     29 C           3.7320   -0.1455    0.0000 C.2     1  UNL1       -0.0807
     30 C           2.8660    0.3545    0.0000 C.2     1  UNL1       -0.0793
     31 C           2.0000   -0.1455    0.0000 C.3     1  UNL1       -0.0440
     32 C           2.8660    1.3545    0.0000 C.3     1  UNL1       -0.0440
     33 H          13.9292    0.7095    0.0000 H       1  UNL1        0.0636
     34 H          12.1278   -0.5755    0.0000 H       1  UNL1        0.0342
     35 H          12.9248   -0.5755    0.0000 H       1  UNL1        0.0342
     36 H          14.3923    0.7795    0.0000 H       1  UNL1        0.0269
     37 H          15.0123    1.3995    0.0000 H       1  UNL1        0.0269
     38 H          14.3923    2.0195    0.0000 H       1  UNL1        0.0269
     39 H          14.4292    1.9555    0.0000 H       1  UNL1        0.0269
     40 H          14.2023    2.8024    0.0000 H       1  UNL1        0.0269
     41 H          13.3554    2.5755    0.0000 H       1  UNL1        0.0269
     42 H          10.7735    2.5541    0.0000 H       1  UNL1        0.0654
     43 H          14.2583   -0.7205    0.0000 H       1  UNL1        0.2100
     44 H           9.3245    1.7324    0.0000 H       1  UNL1        0.0626
     45 H          11.3184   -1.4389    0.0000 H       1  UNL1        0.2922
     46 H           9.5319   -1.4784    0.0000 H       1  UNL1        0.1037
     47 H           6.3301   -2.2655    0.0000 H       1  UNL1        0.0691
     48 H           4.9966    0.8295    0.0000 H       1  UNL1        0.0358
     49 H           4.1996    0.8295    0.0000 H       1  UNL1        0.0358
     50 H           3.7320   -0.7655    0.0000 H       1  UNL1        0.0575
     51 H           5.7932    1.6645    0.0000 H       1  UNL1        0.2922
     52 H           4.5981   -2.2655    0.0000 H       1  UNL1        0.2921
     53 H           1.6900    0.3914    0.0000 H       1  UNL1        0.0274
     54 H           3.4860    1.3545    0.0000 H       1  UNL1        0.0274
     55 H           2.8660    1.9745    0.0000 H       1  UNL1        0.0274
     56 H           2.2460    1.3545    0.0000 H       1  UNL1        0.0274
     57 H           1.4631   -0.4555    0.0000 H       1  UNL1        0.0274
     58 H           2.3100   -0.6824    0.0000 H       1  UNL1        0.0274
@<TRIPOS>BOND
     1     1     8    1
     2     1    12    1
     3     2     9    1
     4     2    43    1
     5     3    15    1
     6     3    45    1
     7     4    22   ar
     8     4    23   ar
     9     5    20    2
    10     6    24    1
    11     6    51    1
    12     7    27    1
    13     7    52    1
    14     8     9    1
    15     8    13    1
    16     8    14    1
    17     9    10    1
    18     9    33    1
    19    10    11    1
    20    10    34    1
    21    10    35    1
    22    11    12   ar
    23    11    15   ar
    24    12    17   ar
    25    13    36    1
    26    13    37    1
    27    13    38    1
    28    14    39    1
    29    14    40    1
    30    14    41    1
    31    15    16   ar
    32    16    18   ar
    33    16    19    1
    34    17    18   ar
    35    17    42    1
    36    18    44    1
    37    19    20   ar
    38    19    22   ar
    39    20    21   ar
    40    21    23   ar
    41    21    24   ar
    42    22    46    1
    43    23    26   ar
    44    24    25   ar
    45    25    27   ar
    46    25    28    1
    47    26    27   ar
    48    26    47    1
    49    28    29    1
    50    28    48    1
    51    28    49    1
    52    29    30    2
    53    29    50    1
    54    30    31    1
    55    30    32    1
    56    31    53    1
    57    31    57    1
    58    31    58    1
    59    32    54    1
    60    32    55    1
    61    32    56    1
