@<TRIPOS>MOLECULE
IMPHY005413
 52 54 0 0 0
SMALL
GASTEIGER

@<TRIPOS>ATOM
      1 O           6.4237   -0.9234    0.0000 O.3     1  UNL1       -0.3918
      2 O           2.8660   -0.1751    0.0000 O.3     1  UNL1       -0.4907
      3 O           4.5806    2.7947    0.0000 O.3     1  UNL1       -0.5030
      4 O           2.8660    1.8048    0.0000 O.3     1  UNL1       -0.4885
      5 O           2.8660   -1.1349    0.0000 O.3     1  UNL1       -0.5062
      6 C           7.8034   -0.6877    0.0000 C.3     1  UNL1       -0.0268
      7 C           7.1265   -1.6349    0.0000 C.3     1  UNL1        0.0556
      8 C           7.1265    0.3249    0.0000 C.3     1  UNL1       -0.0504
      9 C           7.1265   -2.6148    0.0000 C.3     1  UNL1       -0.0229
     10 C           7.1265    1.3048    0.0000 C.3     1  UNL1       -0.0489
     11 C           6.2779    1.7947    0.0000 C.3     1  UNL1       -0.0241
     12 C           6.2779   -3.1047    0.0000 C.3     1  UNL1       -0.0253
     13 C           5.4293    1.3048    0.0000 C.ar    1  UNL1       -0.0015
     14 C           5.4293   -2.6148    0.0000 C.ar    1  UNL1       -0.0465
     15 C           4.5806   -0.1651    0.0000 C.ar    1  UNL1        0.0314
     16 C           4.5806   -1.1449    0.0000 C.ar    1  UNL1        0.0274
     17 C           5.4293    0.3249    0.0000 C.ar    1  UNL1       -0.0435
     18 C           5.4293   -1.6349    0.0000 C.ar    1  UNL1       -0.0472
     19 C           4.5806    1.7947    0.0000 C.ar    1  UNL1        0.1654
     20 C           3.7320    0.3249    0.0000 C.ar    1  UNL1        0.1730
     21 C           3.7320    1.3048    0.0000 C.ar    1  UNL1        0.2042
     22 C           4.5806   -3.1047    0.0000 C.ar    1  UNL1       -0.0551
     23 C           3.7320   -1.6349    0.0000 C.ar    1  UNL1        0.1247
     24 C           3.7320   -2.6148    0.0000 C.ar    1  UNL1       -0.0193
     25 C           2.0000    0.3249    0.0000 C.3     1  UNL1        0.0790
     26 C           2.8660    2.8048    0.0000 C.3     1  UNL1        0.0791
     27 H           8.2609   -1.1061    0.0000 H       1  UNL1        0.0290
     28 H           8.2737   -0.2837    0.0000 H       1  UNL1        0.0290
     29 H           6.5266   -1.7916    0.0000 H       1  UNL1        0.0593
     30 H           6.5394    0.5241    0.0000 H       1  UNL1        0.0266
     31 H           7.7198    0.5049    0.0000 H       1  UNL1        0.0266
     32 H           7.3385   -3.1974    0.0000 H       1  UNL1        0.0293
     33 H           7.7370   -2.5071    0.0000 H       1  UNL1        0.0293
     34 H           7.7370    1.1971    0.0000 H       1  UNL1        0.0268
     35 H           7.3385    1.8874    0.0000 H       1  UNL1        0.0268
     36 H           6.6764    2.2697    0.0000 H       1  UNL1        0.0314
     37 H           5.8793    2.2697    0.0000 H       1  UNL1        0.0314
     38 H           5.8793   -3.5797    0.0000 H       1  UNL1        0.0314
     39 H           6.6764   -3.5797    0.0000 H       1  UNL1        0.0314
     40 H           5.9662    0.0149    0.0000 H       1  UNL1        0.0629
     41 H           5.9662   -1.3249    0.0000 H       1  UNL1        0.0627
     42 H           4.5806   -3.7247    0.0000 H       1  UNL1        0.0621
     43 H           6.5879   -0.3256    0.0000 H       1  UNL1        0.2098
     44 H           3.1951   -2.9248    0.0000 H       1  UNL1        0.0654
     45 H           5.1176    3.1047    0.0000 H       1  UNL1        0.2923
     46 H           2.3291   -1.4449    0.0000 H       1  UNL1        0.2922
     47 H           2.3100    0.8618    0.0000 H       1  UNL1        0.0660
     48 H           1.4631    0.6349    0.0000 H       1  UNL1        0.0660
     49 H           1.6900   -0.2121    0.0000 H       1  UNL1        0.0660
     50 H           3.4860    2.8048    0.0000 H       1  UNL1        0.0660
     51 H           2.8660    3.4248    0.0000 H       1  UNL1        0.0660
     52 H           2.2460    2.8048    0.0000 H       1  UNL1        0.0660
@<TRIPOS>BOND
     1     7     1    1
     2     1    43    1
     3     2    20    1
     4     2    25    1
     5     3    19    1
     6     3    45    1
     7     4    21    1
     8     4    26    1
     9     5    23    1
    10     5    46    1
    11     6     7    1
    12     6     8    1
    13     6    27    1
    14     6    28    1
    15     7     9    1
    16     7    29    1
    17     8    10    1
    18     8    30    1
    19     8    31    1
    20     9    12    1
    21     9    32    1
    22     9    33    1
    23    10    11    1
    24    10    34    1
    25    10    35    1
    26    11    13    1
    27    11    36    1
    28    11    37    1
    29    12    14    1
    30    12    38    1
    31    12    39    1
    32    13    17   ar
    33    13    19   ar
    34    14    18   ar
    35    14    22   ar
    36    15    16    1
    37    15    17   ar
    38    15    20   ar
    39    16    18   ar
    40    16    23   ar
    41    17    40    1
    42    18    41    1
    43    19    21   ar
    44    20    21   ar
    45    22    24   ar
    46    22    42    1
    47    23    24   ar
    48    24    44    1
    49    25    47    1
    50    25    48    1
    51    25    49    1
    52    26    50    1
    53    26    51    1
    54    26    52    1
