@<TRIPOS>MOLECULE
IMPHY003848
 47 52 0 0 0
SMALL
GASTEIGER

@<TRIPOS>ATOM
      1 O           5.0805    1.4784    0.0000 O.3     1  UNL1       -0.3355
      2 O           6.5600    1.3721    0.0000 O.3     1  UNL1       -0.4677
      3 O           8.0273    0.4518    0.0000 O.2     1  UNL1       -0.2505
      4 N           6.0235   -0.0562    0.0000 N.3     1  UNL1       -0.2661
      5 N           4.3106   -1.6296    0.0000 N.pl3   1  UNL1       -0.3143
      6 C           4.3106   -0.2362    0.0000 C.3     1  UNL1        0.0617
      7 C           4.8168   -0.9329    0.0000 C.3     1  UNL1        0.1621
      8 C           5.6732   -0.8429    0.0000 C.3     1  UNL1        0.0602
      9 C           6.4966   -0.3588    0.0000 C.3     1  UNL1        0.0770
     10 C           5.5173    0.6405    0.0000 C.3     1  UNL1        0.1161
     11 C           4.6608    0.5505    0.0000 C.3     1  UNL1        0.0020
     12 C           7.0358   -1.4496    0.0000 C.3     1  UNL1       -0.0033
     13 C           6.1794   -1.5396    0.0000 C.3     1  UNL1       -0.0256
     14 C           3.4916   -0.5023    0.0000 C.ar    1  UNL1       -0.0150
     15 C           6.8799    0.0338    0.0000 C.3     1  UNL1        0.0231
     16 C           7.3861   -0.6629    0.0000 C.2     1  UNL1       -0.0557
     17 C           3.4916   -1.3635    0.0000 C.ar    1  UNL1        0.0331
     18 C           7.0280    0.4884    0.0000 C.2     1  UNL1        0.3115
     19 C           2.7458   -0.0718    0.0000 C.ar    1  UNL1       -0.0561
     20 C           8.3806   -0.5583    0.0000 C.2     1  UNL1       -0.0864
     21 C           2.7458   -1.7941    0.0000 C.ar    1  UNL1       -0.0405
     22 C           2.0000   -0.5023    0.0000 C.ar    1  UNL1       -0.0614
     23 C           2.0000   -1.3635    0.0000 C.ar    1  UNL1       -0.0600
     24 C           8.7874    0.3552    0.0000 C.3     1  UNL1       -0.0465
     25 C           7.0913    2.2192    0.0000 C.3     1  UNL1        0.0817
     26 H           5.3275   -1.6194    0.0000 H       1  UNL1        0.0509
     27 H           6.6872   -0.9488    0.0000 H       1  UNL1        0.0430
     28 H           6.2400    1.0880    0.0000 H       1  UNL1        0.0770
     29 H           4.7041    1.1690    0.0000 H       1  UNL1        0.0314
     30 H           4.0593    0.7005    0.0000 H       1  UNL1        0.0314
     31 H           7.5355   -2.1372    0.0000 H       1  UNL1        0.0355
     32 H           5.6221   -1.8114    0.0000 H       1  UNL1        0.0288
     33 H           6.3503   -2.1356    0.0000 H       1  UNL1        0.0288
     34 H           4.5022   -2.2192    0.0000 H       1  UNL1        0.1488
     35 H           7.4372    0.3056    0.0000 H       1  UNL1        0.0473
     36 H           6.7090    0.6298    0.0000 H       1  UNL1        0.0473
     37 H           2.7458    0.5482    0.0000 H       1  UNL1        0.0621
     38 H           8.7451   -1.0599    0.0000 H       1  UNL1        0.0569
     39 H           2.7458   -2.4141    0.0000 H       1  UNL1        0.0636
     40 H           1.4631   -0.1923    0.0000 H       1  UNL1        0.0618
     41 H           1.4631   -1.6735    0.0000 H       1  UNL1        0.0618
     42 H           9.3538    0.1030    0.0000 H       1  UNL1        0.0272
     43 H           9.0395    0.9216    0.0000 H       1  UNL1        0.0272
     44 H           8.2210    0.6074    0.0000 H       1  UNL1        0.0272
     45 H           7.6165    1.8898    0.0000 H       1  UNL1        0.0661
     46 H           7.4207    2.7445    0.0000 H       1  UNL1        0.0661
     47 H           6.5661    2.5487    0.0000 H       1  UNL1        0.0661
@<TRIPOS>BOND
     1     1     7    1
     2     1    10    1
     3     2    18    1
     4     2    25    1
     5     3    18    2
     6     4     8    1
     7     4    10    1
     8     4    15    1
     9     7     5    1
    10     5    17    1
    11     5    34    1
    12     6     7    1
    13     6     9    1
    14     6    11    1
    15     6    14    1
    16     7     8    1
    17     8    13    1
    18     8    26    1
    19     9    12    1
    20     9    18    1
    21     9    27    1
    22    10    11    1
    23    10    28    1
    24    11    29    1
    25    11    30    1
    26    12    13    1
    27    12    16    1
    28    12    31    1
    29    13    32    1
    30    13    33    1
    31    14    17   ar
    32    14    19   ar
    33    15    16    1
    34    15    35    1
    35    15    36    1
    36    16    20    2
    37    17    21   ar
    38    19    22   ar
    39    19    37    1
    40    20    24    1
    41    20    38    1
    42    21    23   ar
    43    21    39    1
    44    22    23   ar
    45    22    40    1
    46    23    41    1
    47    24    42    1
    48    24    43    1
    49    24    44    1
    50    25    45    1
    51    25    46    1
    52    25    47    1
