@<TRIPOS>MOLECULE
IMPHY000720
 114 123 0 0 0
SMALL
GASTEIGER

@<TRIPOS>ATOM
      1 O           4.1796   -3.0437    0.0000 O.3     1  UNL1       -0.4677
      2 O          13.3889    0.3836    0.0000 O.3     1  UNL1       -0.3707
      3 O           5.7537   -2.3210    0.0000 O.2     1  UNL1       -0.2505
      4 O           7.6727   -0.6307    0.0000 O.3     1  UNL1       -0.4945
      5 O          10.6104   -1.6404    0.0000 O.3     1  UNL1       -0.4675
      6 O           6.9422    2.9532    0.0000 O.3     1  UNL1       -0.4944
      7 O           9.2446   -0.5753    0.0000 O.2     1  UNL1       -0.2502
      8 O          14.5251    0.8508    0.0000 O.2     1  UNL1       -0.2753
      9 N           3.8732    1.7832    0.0000 N.3     1  UNL1       -0.2773
     10 N           3.9336    1.2572    0.0000 N.pl3   1  UNL1       -0.3247
     11 N          12.7962    0.9564    0.0000 N.am    1  UNL1       -0.2899
     12 N          10.5308    2.6126    0.0000 N.ar    1  UNL1       -0.3448
     13 C           4.4336   -0.2817    0.0000 C.3     1  UNL1        0.0468
     14 C           3.6246    0.3061    0.0000 C.3     1  UNL1        0.0968
     15 C           4.3407   -1.3191    0.0000 C.3     1  UNL1        0.0758
     16 C           5.7615    0.4112    0.0000 C.3     1  UNL1       -0.0264
     17 C           3.3924   -1.7501    0.0000 C.3     1  UNL1       -0.0047
     18 C           2.6666   -0.1028    0.0000 C.3     1  UNL1       -0.0165
     19 C           5.3692    1.8567    0.0000 C.3     1  UNL1        0.0021
     20 C           5.2426    0.3061    0.0000 C.ar    1  UNL1       -0.0124
     21 C           2.5498   -1.1379    0.0000 C.3     1  UNL1       -0.0425
     22 C           3.6719    0.6112    0.0000 C.3     1  UNL1        0.0222
     23 C           4.9336    1.2572    0.0000 C.ar    1  UNL1        0.0361
     24 C           3.5116   -0.5670    0.0000 C.2     1  UNL1       -0.0558
     25 C           4.7580   -2.2279    0.0000 C.2     1  UNL1        0.3115
     26 C           6.0059   -0.4027    0.0000 C.ar    1  UNL1       -0.0137
     27 C           5.9192    1.5943    0.0000 C.ar    1  UNL1       -0.0180
     28 C          11.8404   -0.0634    0.0000 C.3     1  UNL1        0.0110
     29 C           2.5185   -0.4495    0.0000 C.2     1  UNL1       -0.0864
     30 C          12.4554    0.7252    0.0000 C.3     1  UNL1        0.0873
     31 C          12.3991   -0.8856    0.0000 C.3     1  UNL1        0.0072
     32 C          12.0800    1.6520    0.0000 C.3     1  UNL1        0.0929
     33 C           6.8709    0.9123    0.0000 C.ar    1  UNL1        0.0320
     34 C           6.8267   -0.0975    0.0000 C.ar    1  UNL1        0.1285
     35 C          10.8500    0.0750    0.0000 C.3     1  UNL1        0.0892
     36 C          13.3542   -0.6099    0.0000 C.3     1  UNL1        0.0610
     37 C          12.9208   -0.0342    0.0000 C.3     1  UNL1        0.0210
     38 C          11.0896    1.7904    0.0000 C.ar    1  UNL1        0.0466
     39 C          10.4746    1.0018    0.0000 C.ar    1  UNL1       -0.0029
     40 C           5.9425    2.5940    0.0000 C.3     1  UNL1       -0.0373
     41 C           7.7521    1.3852    0.0000 C.ar    1  UNL1        0.0283
     42 C           9.5410    1.3434    0.0000 C.ar    1  UNL1        0.0050
     43 C           2.1237    0.4693    0.0000 C.3     1  UNL1       -0.0465
     44 C           9.5758    2.3369    0.0000 C.ar    1  UNL1        0.0529
     45 C           8.6344    0.8433    0.0000 C.ar    1  UNL1       -0.0409
     46 C          14.1428   -1.2249    0.0000 C.3     1  UNL1       -0.0384
     47 C          10.2350   -0.7136    0.0000 C.2     1  UNL1        0.3148
     48 C          13.6911    1.4027    0.0000 C.2     1  UNL1        0.2187
     49 C           7.7882    2.4200    0.0000 C.ar    1  UNL1        0.1299
     50 C           4.5969   -3.9525    0.0000 C.3     1  UNL1        0.0817
     51 C           8.7062    2.8991    0.0000 C.ar    1  UNL1        0.0048
     52 C          10.8704    3.5531    0.0000 C.3     1  UNL1        0.0122
     53 C          13.7521    2.4008    0.0000 C.3     1  UNL1        0.0301
     54 C           7.6339   -1.6299    0.0000 C.3     1  UNL1        0.0788
     55 C          14.6470    2.8471    0.0000 C.3     1  UNL1       -0.0544
     56 C          12.9182    2.9527    0.0000 C.3     1  UNL1       -0.0544
     57 C           9.9954   -2.4290    0.0000 C.3     1  UNL1        0.0817
     58 C           6.9810    3.9525    0.0000 C.3     1  UNL1        0.0788
     59 H           4.9580   -1.3768    0.0000 H       1  UNL1        0.0429
     60 H           6.0081   -0.1577    0.0000 H       1  UNL1        0.0287
     61 H           6.3467    0.6162    0.0000 H       1  UNL1        0.0287
     62 H           3.3069   -2.5958    0.0000 H       1  UNL1        0.0354
     63 H           2.5244    0.5006    0.0000 H       1  UNL1        0.0299
     64 H           2.0477   -0.1397    0.0000 H       1  UNL1        0.0299
     65 H           5.9777    1.9757    0.0000 H       1  UNL1        0.0428
     66 H           5.2943    2.4722    0.0000 H       1  UNL1        0.0428
     67 H           1.9546   -0.9639    0.0000 H       1  UNL1        0.0272
     68 H           2.2765   -1.6944    0.0000 H       1  UNL1        0.0272
     69 H           3.3320    1.4072    0.0000 H       1  UNL1        0.1479
     70 H           3.1906    1.0021    0.0000 H       1  UNL1        0.0473
     71 H           4.2847    0.5169    0.0000 H       1  UNL1        0.0473
     72 H           5.8850   -1.0108    0.0000 H       1  UNL1        0.0658
     73 H          11.3177   -0.7336    0.0000 H       1  UNL1        0.0342
     74 H           2.0000   -0.7895    0.0000 H       1  UNL1        0.0569
     75 H          11.7045    1.1236    0.0000 H       1  UNL1        0.0622
     76 H          11.9550   -1.6103    0.0000 H       1  UNL1        0.0345
     77 H          12.4533    2.4157    0.0000 H       1  UNL1        0.0591
     78 H          10.2360    0.1607    0.0000 H       1  UNL1        0.0467
     79 H          13.9160   -0.3476    0.0000 H       1  UNL1        0.0597
     80 H          13.3308   -0.4994    0.0000 H       1  UNL1        0.0468
     81 H          13.4860    0.2207    0.0000 H       1  UNL1        0.0468
     82 H           6.5624    2.5795    0.0000 H       1  UNL1        0.0278
     83 H           5.9570    3.2138    0.0000 H       1  UNL1        0.0278
     84 H           5.3227    2.6085    0.0000 H       1  UNL1        0.0278
     85 H           2.6934    0.7140    0.0000 H       1  UNL1        0.0272
     86 H           1.8790    1.0389    0.0000 H       1  UNL1        0.0272
     87 H           1.5541    0.2245    0.0000 H       1  UNL1        0.0272
     88 H           8.6199    0.2234    0.0000 H       1  UNL1        0.0631
     89 H          13.7615   -1.7138    0.0000 H       1  UNL1        0.0255
     90 H          14.6317   -1.6062    0.0000 H       1  UNL1        0.0255
     91 H          14.5240   -0.7360    0.0000 H       1  UNL1        0.0255
     92 H           4.0334   -4.2112    0.0000 H       1  UNL1        0.0661
     93 H           4.8556   -4.5159    0.0000 H       1  UNL1        0.0661
     94 H           5.1603   -3.6938    0.0000 H       1  UNL1        0.0661
     95 H           8.7350    3.5184    0.0000 H       1  UNL1        0.0675
     96 H          11.4536    3.3426    0.0000 H       1  UNL1        0.0456
     97 H          11.0810    4.1363    0.0000 H       1  UNL1        0.0456
     98 H          10.2873    3.7637    0.0000 H       1  UNL1        0.0456
     99 H          13.1973    2.1241    0.0000 H       1  UNL1        0.0389
    100 H           7.0144   -1.6059    0.0000 H       1  UNL1        0.0660
    101 H           7.6099   -2.2495    0.0000 H       1  UNL1        0.0660
    102 H           8.2535   -1.6540    0.0000 H       1  UNL1        0.0660
    103 H          14.9237    2.2922    0.0000 H       1  UNL1        0.0237
    104 H          15.2019    3.1237    0.0000 H       1  UNL1        0.0237
    105 H          14.3704    3.4019    0.0000 H       1  UNL1        0.0237
    106 H          13.2604    3.4697    0.0000 H       1  UNL1        0.0237
    107 H          12.4012    3.2949    0.0000 H       1  UNL1        0.0237
    108 H          12.5760    2.4357    0.0000 H       1  UNL1        0.0237
    109 H           9.5066   -2.0477    0.0000 H       1  UNL1        0.0661
    110 H           9.6142   -2.9179    0.0000 H       1  UNL1        0.0661
    111 H          10.4843   -2.8103    0.0000 H       1  UNL1        0.0661
    112 H           7.6005    3.9284    0.0000 H       1  UNL1        0.0660
    113 H           7.0050    4.5720    0.0000 H       1  UNL1        0.0660
    114 H           6.3614    3.9765    0.0000 H       1  UNL1        0.0660
@<TRIPOS>BOND
     1     1    25    1
     2     1    50    1
     3     2    30    1
     4     2    36    1
     5     3    25    2
     6     4    34    1
     7     4    54    1
     8     5    47    1
     9     5    57    1
    10     6    49    1
    11     6    58    1
    12     7    47    2
    13     8    48    2
    14     9    14    1
    15     9    19    1
    16     9    22    1
    17    14    10    1
    18    10    23    1
    19    10    69    1
    20    11    32    1
    21    11    37    1
    22    11    48   am
    23    12    38   ar
    24    12    44   ar
    25    12    52    1
    26    13    14    1
    27    13    15    1
    28    13    16    1
    29    13    20    1
    30    14    18    1
    31    15    17    1
    32    15    25    1
    33    15    59    1
    34    16    19    1
    35    16    60    1
    36    16    61    1
    37    17    21    1
    38    17    24    1
    39    17    62    1
    40    18    21    1
    41    18    63    1
    42    18    64    1
    43    19    65    1
    44    19    66    1
    45    20    23   ar
    46    20    26   ar
    47    21    67    1
    48    21    68    1
    49    22    24    1
    50    22    70    1
    51    22    71    1
    52    23    27   ar
    53    24    29    2
    54    26    34   ar
    55    26    72    1
    56    27    33   ar
    57    27    40    1
    58    28    30    1
    59    28    31    1
    60    28    35    1
    61    28    73    1
    62    29    43    1
    63    29    74    1
    64    30    32    1
    65    30    75    1
    66    31    36    1
    67    31    37    1
    68    31    76    1
    69    32    38    1
    70    32    77    1
    71    33    34   ar
    72    33    41    1
    73    35    39    1
    74    35    47    1
    75    35    78    1
    76    36    46    1
    77    36    79    1
    78    37    80    1
    79    37    81    1
    80    38    39   ar
    81    39    42   ar
    82    40    82    1
    83    40    83    1
    84    40    84    1
    85    41    45   ar
    86    41    49   ar
    87    42    44   ar
    88    42    45   ar
    89    43    85    1
    90    43    86    1
    91    43    87    1
    92    44    51   ar
    93    45    88    1
    94    46    89    1
    95    46    90    1
    96    46    91    1
    97    48    53    1
    98    49    51   ar
    99    50    92    1
   100    50    93    1
   101    50    94    1
   102    51    95    1
   103    52    96    1
   104    52    97    1
   105    52    98    1
   106    53    55    1
   107    53    56    1
   108    53    99    1
   109    54   100    1
   110    54   101    1
   111    54   102    1
   112    55   103    1
   113    55   104    1
   114    55   105    1
   115    56   106    1
   116    56   107    1
   117    56   108    1
   118    57   109    1
   119    57   110    1
   120    57   111    1
   121    58   112    1
   122    58   113    1
   123    58   114    1
