@<TRIPOS>MOLECULE
IMPHY007397
 27 27 0 0 0
SMALL
GASTEIGER

@<TRIPOS>ATOM
      1 O           2.8660    0.2500    0.0000 O.3     1  UNL1       -0.4948
      2 O           6.3301   -1.7500    0.0000 O.3     1  UNL1       -0.4951
      3 C           4.5981    0.2500    0.0000 C.ar    1  UNL1        0.0014
      4 C           4.5981    1.2500    0.0000 C.3     1  UNL1       -0.0062
      5 C           3.7320   -0.2500    0.0000 C.ar    1  UNL1        0.1238
      6 C           5.4641   -0.2500    0.0000 C.ar    1  UNL1       -0.0130
      7 C           5.4641   -1.2500    0.0000 C.ar    1  UNL1        0.1206
      8 C           3.7320   -1.2500    0.0000 C.ar    1  UNL1       -0.0162
      9 C           4.5981   -1.7500    0.0000 C.ar    1  UNL1       -0.0165
     10 C           5.4641    1.7500    0.0000 C.2     1  UNL1       -0.0867
     11 C           2.0000   -0.2500    0.0000 C.3     1  UNL1        0.0788
     12 C           6.3301   -2.7500    0.0000 C.3     1  UNL1        0.0788
     13 C           5.4641    2.7500    0.0000 C.2     1  UNL1       -0.1023
     14 H           4.3860    1.8326    0.0000 H       1  UNL1        0.0357
     15 H           3.9875    1.1423    0.0000 H       1  UNL1        0.0357
     16 H           6.0010    0.0600    0.0000 H       1  UNL1        0.0658
     17 H           3.1951   -1.5600    0.0000 H       1  UNL1        0.0655
     18 H           4.5981   -2.3700    0.0000 H       1  UNL1        0.0655
     19 H           6.0010    1.4400    0.0000 H       1  UNL1        0.0570
     20 H           1.6900    0.2869    0.0000 H       1  UNL1        0.0660
     21 H           1.4631   -0.5600    0.0000 H       1  UNL1        0.0660
     22 H           2.3100   -0.7869    0.0000 H       1  UNL1        0.0660
     23 H           5.7101   -2.7500    0.0000 H       1  UNL1        0.0660
     24 H           6.3301   -3.3700    0.0000 H       1  UNL1        0.0660
     25 H           6.9501   -2.7500    0.0000 H       1  UNL1        0.0660
     26 H           6.0010    3.0600    0.0000 H       1  UNL1        0.0532
     27 H           4.9272    3.0600    0.0000 H       1  UNL1        0.0532
@<TRIPOS>BOND
     1     1     5    1
     2     1    11    1
     3     2     7    1
     4     2    12    1
     5     3     4    1
     6     3     5   ar
     7     3     6   ar
     8     4    10    1
     9     4    14    1
    10     4    15    1
    11     5     8   ar
    12     6     7   ar
    13     6    16    1
    14     7     9   ar
    15     8     9   ar
    16     8    17    1
    17     9    18    1
    18    10    13    2
    19    10    19    1
    20    11    20    1
    21    11    21    1
    22    11    22    1
    23    12    23    1
    24    12    24    1
    25    12    25    1
    26    13    26    1
    27    13    27    1
