@<TRIPOS>MOLECULE
IMPHY016574
 39 38 0 0 0
SMALL
GASTEIGER

@<TRIPOS>ATOM
      1 O           2.8660    0.5000    0.0000 O.3     1  UNL1       -0.3800
      2 C           6.3301    0.5000    0.0000 C.3     1  UNL1       -0.0386
      3 C           7.1962    1.0000    0.0000 C.3     1  UNL1       -0.0439
      4 C           5.4641    1.0000    0.0000 C.3     1  UNL1       -0.0476
      5 C           6.3301   -0.5000    0.0000 C.3     1  UNL1       -0.0502
      6 C           4.5981    0.5000    0.0000 C.3     1  UNL1       -0.0266
      7 C           5.4641   -1.0000    0.0000 C.3     1  UNL1       -0.0557
      8 C           8.0622    0.5000    0.0000 C.3     1  UNL1       -0.0624
      9 C           7.1962    2.0000    0.0000 C.3     1  UNL1       -0.0624
     10 C           3.7320    1.0000    0.0000 C.3     1  UNL1        0.0555
     11 C           5.4641   -2.0000    0.0000 C.3     1  UNL1       -0.0653
     12 C           3.7320    2.0000    0.0000 C.3     1  UNL1       -0.0387
     13 C           2.0000    1.0000    0.0000 C.3     1  UNL1        0.0368
     14 H           6.3302    1.2500    0.0000 H       1  UNL1        0.0303
     15 H           7.1961    0.2500    0.0000 H       1  UNL1        0.0298
     16 H           5.0891    1.6495    0.0000 H       1  UNL1        0.0269
     17 H           5.8391    1.6495    0.0000 H       1  UNL1        0.0269
     18 H           7.0801   -0.5000    0.0000 H       1  UNL1        0.0268
     19 H           6.7051   -1.1495    0.0000 H       1  UNL1        0.0268
     20 H           4.9732   -0.1495    0.0000 H       1  UNL1        0.0290
     21 H           4.2232   -0.1496    0.0000 H       1  UNL1        0.0290
     22 H           4.7141   -1.0000    0.0000 H       1  UNL1        0.0263
     23 H           5.0891   -0.3505    0.0000 H       1  UNL1        0.0263
     24 H           8.0622   -0.2500    0.0000 H       1  UNL1        0.0232
     25 H           8.7117    0.1250    0.0000 H       1  UNL1        0.0232
     26 H           8.7117    0.8750    0.0000 H       1  UNL1        0.0232
     27 H           7.8457    2.3750    0.0000 H       1  UNL1        0.0232
     28 H           7.1962    2.7500    0.0000 H       1  UNL1        0.0232
     29 H           6.5467    2.3750    0.0000 H       1  UNL1        0.0232
     30 H           3.7321    0.2500    0.0000 H       1  UNL1        0.0593
     31 H           4.8146   -2.3750    0.0000 H       1  UNL1        0.0230
     32 H           5.4641   -2.7500    0.0000 H       1  UNL1        0.0230
     33 H           6.1136   -2.3750    0.0000 H       1  UNL1        0.0230
     34 H           4.3815    2.3750    0.0000 H       1  UNL1        0.0254
     35 H           3.7320    2.7500    0.0000 H       1  UNL1        0.0254
     36 H           3.0825    2.3750    0.0000 H       1  UNL1        0.0254
     37 H           2.0000    1.7500    0.0000 H       1  UNL1        0.0524
     38 H           1.3505    1.3750    0.0000 H       1  UNL1        0.0524
     39 H           1.3505    0.6250    0.0000 H       1  UNL1        0.0524
@<TRIPOS>BOND
     1     1    10    1
     2     1    13    1
     3     2     3    1
     4     2     4    1
     5     2     5    1
     6     2    14    1
     7     3     8    1
     8     3     9    1
     9     3    15    1
    10     4     6    1
    11     4    16    1
    12     4    17    1
    13     5     7    1
    14     5    18    1
    15     5    19    1
    16     6    10    1
    17     6    20    1
    18     6    21    1
    19     7    11    1
    20     7    22    1
    21     7    23    1
    22     8    24    1
    23     8    25    1
    24     8    26    1
    25     9    27    1
    26     9    28    1
    27     9    29    1
    28    10    12    1
    29    10    30    1
    30    11    31    1
    31    11    32    1
    32    11    33    1
    33    12    34    1
    34    12    35    1
    35    12    36    1
    36    13    37    1
    37    13    38    1
    38    13    39    1
