@<TRIPOS>MOLECULE
IMPHY016587
 17 17 0 0 0
SMALL
GASTEIGER

@<TRIPOS>ATOM
      1 O           2.8660    1.3450    0.0000 O.3     1  UNL1       -0.3915
      2 C           2.8660    0.3450    0.0000 C.3     1  UNL1        0.0589
      3 C           2.0000   -0.1550    0.0000 C.3     1  UNL1       -0.0231
      4 C           3.7320   -0.1550    0.0000 C.3     1  UNL1       -0.0086
      5 C           2.0000   -1.1550    0.0000 C.3     1  UNL1       -0.0324
      6 C           3.7320   -1.1550    0.0000 C.2     1  UNL1       -0.0855
      7 C           2.8660   -1.6550    0.0000 C.2     1  UNL1       -0.0878
      8 H           3.4030    0.6550    0.0000 H       1  UNL1        0.0596
      9 H           1.7880    0.4276    0.0000 H       1  UNL1        0.0293
     10 H           1.3894   -0.2627    0.0000 H       1  UNL1        0.0293
     11 H           4.3426   -0.2627    0.0000 H       1  UNL1        0.0332
     12 H           3.9441    0.4276    0.0000 H       1  UNL1        0.0332
     13 H           1.3894   -1.0473    0.0000 H       1  UNL1        0.0308
     14 H           1.7880   -1.7376    0.0000 H       1  UNL1        0.0308
     15 H           4.2690   -1.4650    0.0000 H       1  UNL1        0.0570
     16 H           2.8660   -2.2750    0.0000 H       1  UNL1        0.0569
     17 H           3.4030    1.6550    0.0000 H       1  UNL1        0.2098
@<TRIPOS>BOND
     1     1     2    1
     2     1    17    1
     3     2     3    1
     4     2     4    1
     5     2     8    1
     6     3     5    1
     7     3     9    1
     8     3    10    1
     9     4     6    1
    10     4    11    1
    11     4    12    1
    12     5     7    1
    13     5    13    1
    14     5    14    1
    15     6     7    2
    16     6    15    1
    17     7    16    1
