@<TRIPOS>MOLECULE
IMPHY006433
 37 41 0 0 0
SMALL
GASTEIGER

@<TRIPOS>ATOM
      1 O           2.2314    0.0528    0.0000 O.3     1  UNL1       -0.4811
      2 O           2.0000   -2.4021    0.0000 O.3     1  UNL1       -0.3841
      3 O           2.0000    2.4021    0.0000 O.3     1  UNL1       -0.5033
      4 N           6.1607   -0.9511    0.0000 N.3     1  UNL1       -0.3123
      5 C           3.6897   -0.4755    0.0000 C.3     1  UNL1        0.0480
      6 C           4.5133   -0.9511    0.0000 C.3     1  UNL1        0.0062
      7 C           2.8660   -0.9511    0.0000 C.3     1  UNL1        0.1399
      8 C           5.3370   -0.4755    0.0000 C.3     1  UNL1        0.0188
      9 C           3.6897    0.4755    0.0000 C.ar    1  UNL1        0.0116
     10 C           4.2392    0.2219    0.0000 C.3     1  UNL1       -0.0265
     11 C           5.3370    0.4755    0.0000 C.3     1  UNL1       -0.0112
     12 C           4.5133    0.9511    0.0000 C.ar    1  UNL1       -0.0383
     13 C           5.5918    0.2219    0.0000 C.3     1  UNL1       -0.0029
     14 C           2.8660   -1.9022    0.0000 C.3     1  UNL1        0.1110
     15 C           4.5133   -1.9022    0.0000 C.2     1  UNL1       -0.0799
     16 C           2.8660    0.9511    0.0000 C.ar    1  UNL1        0.1663
     17 C           3.6897   -2.3777    0.0000 C.2     1  UNL1       -0.0559
     18 C           4.5133    1.9022    0.0000 C.ar    1  UNL1       -0.0546
     19 C           2.8660    1.9022    0.0000 C.ar    1  UNL1        0.1588
     20 C           3.6897    2.3777    0.0000 C.ar    1  UNL1       -0.0162
     21 H           5.0597   -1.6022    0.0000 H       1  UNL1        0.0368
     22 H           2.0496   -1.1875    0.0000 H       1  UNL1        0.0772
     23 H           5.6284   -1.2740    0.0000 H       1  UNL1        0.0469
     24 H           4.3760    0.8266    0.0000 H       1  UNL1        0.0287
     25 H           3.6795    0.4887    0.0000 H       1  UNL1        0.0287
     26 H           5.9476    0.3679    0.0000 H       1  UNL1        0.0329
     27 H           5.5490    1.0581    0.0000 H       1  UNL1        0.0329
     28 H           6.1840    0.4057    0.0000 H       1  UNL1        0.0424
     29 H           5.4989    0.8349    0.0000 H       1  UNL1        0.0424
     30 H           2.8660   -2.5222    0.0000 H       1  UNL1        0.0675
     31 H           6.5830   -1.4050    0.0000 H       1  UNL1        0.1222
     32 H           5.0503   -2.2122    0.0000 H       1  UNL1        0.0573
     33 H           3.6897   -2.9977    0.0000 H       1  UNL1        0.0596
     34 H           5.0503    2.2122    0.0000 H       1  UNL1        0.0622
     35 H           3.6897    2.9977    0.0000 H       1  UNL1        0.0655
     36 H           2.0000   -3.0222    0.0000 H       1  UNL1        0.2104
     37 H           2.0000    3.0222    0.0000 H       1  UNL1        0.2923
@<TRIPOS>BOND
     1     1     7    1
     2     1    16    1
     3    14     2    1
     4     2    36    1
     5     3    19    1
     6     3    37    1
     7     4     8    1
     8     4    13    1
     9     4    31    1
    10     5     6    1
    11     5     7    1
    12     5     9    1
    13     5    10    1
    14     6     8    1
    15     6    15    1
    16     6    21    1
    17     7    14    1
    18     7    22    1
    19     8    11    1
    20     8    23    1
    21     9    12   ar
    22     9    16   ar
    23    10    13    1
    24    10    24    1
    25    10    25    1
    26    11    12    1
    27    11    26    1
    28    11    27    1
    29    12    18   ar
    30    13    28    1
    31    13    29    1
    32    14    17    1
    33    14    30    1
    34    15    17    2
    35    15    32    1
    36    16    19   ar
    37    17    33    1
    38    18    20   ar
    39    18    34    1
    40    19    20   ar
    41    20    35    1
