@<TRIPOS>MOLECULE
IMPHY004385
 73 75 0 0 0
SMALL
GASTEIGER

@<TRIPOS>ATOM
      1 O           2.0000   -4.8465    0.0000 O.3     1  UNL1       -0.3915
      2 C           5.4641    1.1535    0.0000 C.3     1  UNL1       -0.0222
      3 C           6.4103    1.4582    0.0000 C.3     1  UNL1       -0.0291
      4 C           5.4641    0.1535    0.0000 C.3     1  UNL1       -0.0139
      5 C           6.9939    0.6535    0.0000 C.3     1  UNL1       -0.0486
      6 C           6.4103   -0.1512    0.0000 C.3     1  UNL1       -0.0457
      7 C           4.5981    1.6535    0.0000 C.3     1  UNL1       -0.0465
      8 C           6.7210    2.4087    0.0000 C.3     1  UNL1       -0.0224
      9 C           4.5981   -0.3465    0.0000 C.2     1  UNL1       -0.0659
     10 C           5.4641    2.1535    0.0000 C.3     1  UNL1       -0.0587
     11 C           3.7320    1.1535    0.0000 C.3     1  UNL1       -0.0488
     12 C           3.7320    0.1535    0.0000 C.3     1  UNL1       -0.0312
     13 C           6.0531    3.1530    0.0000 C.3     1  UNL1       -0.0587
     14 C           7.6995    2.6150    0.0000 C.2     1  UNL1       -0.0846
     15 C           4.5981   -1.3465    0.0000 C.2     1  UNL1       -0.0620
     16 C           8.0102    3.5655    0.0000 C.2     1  UNL1       -0.0846
     17 C           3.7320   -1.8465    0.0000 C.2     1  UNL1       -0.0583
     18 C           8.9887    3.7717    0.0000 C.3     1  UNL1       -0.0234
     19 C           3.7320   -2.8465    0.0000 C.2     1  UNL1       -0.0423
     20 C           9.2993    4.7222    0.0000 C.3     1  UNL1       -0.0407
     21 C           2.8660   -3.3465    0.0000 C.3     1  UNL1       -0.0013
     22 C           9.6565    3.0274    0.0000 C.3     1  UNL1       -0.0587
     23 C           4.5981   -3.3465    0.0000 C.2     1  UNL1       -0.0511
     24 C           2.8660   -4.3465    0.0000 C.3     1  UNL1        0.0595
     25 C           4.5981   -4.3465    0.0000 C.3     1  UNL1       -0.0256
     26 C           3.7320   -4.8465    0.0000 C.3     1  UNL1       -0.0226
     27 C          10.2778    4.9284    0.0000 C.3     1  UNL1       -0.0621
     28 C           8.6315    5.4665    0.0000 C.3     1  UNL1       -0.0621
     29 C           5.4641   -2.8465    0.0000 C.2     1  UNL1       -0.0952
     30 H           7.2500    1.5901    0.0000 H       1  UNL1        0.0312
     31 H           5.5540   -0.6917    0.0000 H       1  UNL1        0.0351
     32 H           7.4548    0.2388    0.0000 H       1  UNL1        0.0268
     33 H           7.4548    1.0682    0.0000 H       1  UNL1        0.0268
     34 H           6.1593   -0.7182    0.0000 H       1  UNL1        0.0271
     35 H           6.9477   -0.4605    0.0000 H       1  UNL1        0.0271
     36 H           4.9966    2.1284    0.0000 H       1  UNL1        0.0271
     37 H           4.1996    2.1284    0.0000 H       1  UNL1        0.0271
     38 H           6.1143    2.2809    0.0000 H       1  UNL1        0.0343
     39 H           6.0841    2.1535    0.0000 H       1  UNL1        0.0235
     40 H           5.4641    2.7735    0.0000 H       1  UNL1        0.0235
     41 H           4.8441    2.1535    0.0000 H       1  UNL1        0.0235
     42 H           3.5200    1.7361    0.0000 H       1  UNL1        0.0268
     43 H           3.1215    1.0458    0.0000 H       1  UNL1        0.0268
     44 H           3.1215    0.2611    0.0000 H       1  UNL1        0.0310
     45 H           3.5200   -0.4291    0.0000 H       1  UNL1        0.0310
     46 H           6.5146    3.5671    0.0000 H       1  UNL1        0.0235
     47 H           5.6391    3.6145    0.0000 H       1  UNL1        0.0235
     48 H           5.5917    2.7390    0.0000 H       1  UNL1        0.0235
     49 H           8.1136    2.1535    0.0000 H       1  UNL1        0.0572
     50 H           5.1350   -1.6565    0.0000 H       1  UNL1        0.0617
     51 H           7.5961    4.0269    0.0000 H       1  UNL1        0.0572
     52 H           3.1951   -1.5365    0.0000 H       1  UNL1        0.0620
     53 H           8.7960    3.1824    0.0000 H       1  UNL1        0.0343
     54 H           9.4919    5.3115    0.0000 H       1  UNL1        0.0301
     55 H           2.6540   -2.7639    0.0000 H       1  UNL1        0.0338
     56 H           2.2554   -3.4542    0.0000 H       1  UNL1        0.0338
     57 H           9.1950    2.6133    0.0000 H       1  UNL1        0.0235
     58 H          10.0706    2.5659    0.0000 H       1  UNL1        0.0235
     59 H          10.1180    3.4415    0.0000 H       1  UNL1        0.0235
     60 H           2.8660   -4.9665    0.0000 H       1  UNL1        0.0596
     61 H           4.8101   -4.9291    0.0000 H       1  UNL1        0.0314
     62 H           5.2087   -4.2388    0.0000 H       1  UNL1        0.0314
     63 H           3.3335   -5.3215    0.0000 H       1  UNL1        0.0293
     64 H           4.1306   -5.3215    0.0000 H       1  UNL1        0.0293
     65 H          10.4057    4.3218    0.0000 H       1  UNL1        0.0233
     66 H          10.8845    5.0563    0.0000 H       1  UNL1        0.0233
     67 H          10.1500    5.5351    0.0000 H       1  UNL1        0.0233
     68 H           9.0929    5.8806    0.0000 H       1  UNL1        0.0233
     69 H           8.2174    5.9280    0.0000 H       1  UNL1        0.0233
     70 H           8.1700    5.0524    0.0000 H       1  UNL1        0.0233
     71 H           6.0010   -3.1565    0.0000 H       1  UNL1        0.0538
     72 H           5.4641   -2.2265    0.0000 H       1  UNL1        0.0538
     73 H           2.0000   -5.4665    0.0000 H       1  UNL1        0.2098
@<TRIPOS>BOND
     1    24     1    1
     2     1    73    1
     3     2     3    1
     4     2     4    1
     5     2     7    1
     6     2    10    1
     7     3     5    1
     8     3     8    1
     9     3    30    1
    10     4     6    1
    11     4     9    1
    12     4    31    1
    13     5     6    1
    14     5    32    1
    15     5    33    1
    16     6    34    1
    17     6    35    1
    18     7    11    1
    19     7    36    1
    20     7    37    1
    21     8    13    1
    22     8    14    1
    23     8    38    1
    24     9    12    1
    25     9    15    2
    26    10    39    1
    27    10    40    1
    28    10    41    1
    29    11    12    1
    30    11    42    1
    31    11    43    1
    32    12    44    1
    33    12    45    1
    34    13    46    1
    35    13    47    1
    36    13    48    1
    37    14    16    2
    38    14    49    1
    39    15    17    1
    40    15    50    1
    41    16    18    1
    42    16    51    1
    43    17    19    2
    44    17    52    1
    45    18    20    1
    46    18    22    1
    47    18    53    1
    48    19    21    1
    49    19    23    1
    50    20    27    1
    51    20    28    1
    52    20    54    1
    53    21    24    1
    54    21    55    1
    55    21    56    1
    56    22    57    1
    57    22    58    1
    58    22    59    1
    59    23    25    1
    60    23    29    2
    61    24    26    1
    62    24    60    1
    63    25    26    1
    64    25    61    1
    65    25    62    1
    66    26    63    1
    67    26    64    1
    68    27    65    1
    69    27    66    1
    70    27    67    1
    71    28    68    1
    72    28    69    1
    73    28    70    1
    74    29    71    1
    75    29    72    1
