@<TRIPOS>MOLECULE
IMPHY000952
 51 53 0 0 0
SMALL
GASTEIGER

@<TRIPOS>ATOM
      1 O           5.5442    2.5839    0.0000 O.3     1  UNL1       -0.5065
      2 C           3.8000   -1.4854    0.0000 C.3     1  UNL1       -0.0262
      3 C           3.8000   -0.4854    0.0000 C.3     1  UNL1       -0.0034
      4 C           2.9061   -2.0200    0.0000 C.3     1  UNL1       -0.0312
      5 C           2.9061    0.0493    0.0000 C.3     1  UNL1       -0.0433
      6 C           2.0000   -1.5062    0.0000 C.3     1  UNL1       -0.0476
      7 C           4.6660   -1.9854    0.0000 C.3     1  UNL1       -0.0449
      8 C           2.0000   -0.4646    0.0000 C.3     1  UNL1       -0.0518
      9 C           4.6660    0.0146    0.0000 C.ar    1  UNL1       -0.0345
     10 C           5.5321   -1.4854    0.0000 C.3     1  UNL1       -0.0271
     11 C           3.8000    0.5146    0.0000 C.3     1  UNL1       -0.0553
     12 C           5.5321   -0.4854    0.0000 C.ar    1  UNL1       -0.0432
     13 C           2.4161   -2.8918    0.0000 C.3     1  UNL1       -0.0595
     14 C           3.4160   -2.8802    0.0000 C.3     1  UNL1       -0.0595
     15 C           4.6500    1.0561    0.0000 C.ar    1  UNL1       -0.0159
     16 C           6.4421    0.0215    0.0000 C.ar    1  UNL1       -0.0514
     17 C           6.4501    1.0631    0.0000 C.ar    1  UNL1       -0.0031
     18 C           5.5480    1.5839    0.0000 C.ar    1  UNL1        0.1206
     19 C           7.3180    1.5597    0.0000 C.3     1  UNL1       -0.0181
     20 C           8.1821    1.0564    0.0000 C.3     1  UNL1       -0.0585
     21 C           7.3219    2.5597    0.0000 C.3     1  UNL1       -0.0585
     22 H           3.8066   -2.3354    0.0000 H       1  UNL1        0.0314
     23 H           3.3107    0.5191    0.0000 H       1  UNL1        0.0274
     24 H           2.5124    0.5283    0.0000 H       1  UNL1        0.0274
     25 H           1.3891   -1.4001    0.0000 H       1  UNL1        0.0271
     26 H           1.7909   -2.0899    0.0000 H       1  UNL1        0.0271
     27 H           4.2675   -2.4603    0.0000 H       1  UNL1        0.0271
     28 H           5.0646   -2.4603    0.0000 H       1  UNL1        0.0271
     29 H           1.7909    0.1191    0.0000 H       1  UNL1        0.0266
     30 H           1.3891   -0.5707    0.0000 H       1  UNL1        0.0266
     31 H           5.7441   -2.0680    0.0000 H       1  UNL1        0.0313
     32 H           6.1426   -1.3777    0.0000 H       1  UNL1        0.0313
     33 H           4.4200    0.5146    0.0000 H       1  UNL1        0.0238
     34 H           3.8000    1.1346    0.0000 H       1  UNL1        0.0238
     35 H           3.1800    0.5146    0.0000 H       1  UNL1        0.0238
     36 H           1.8756   -2.5880    0.0000 H       1  UNL1        0.0235
     37 H           2.1123   -3.4323    0.0000 H       1  UNL1        0.0235
     38 H           2.9566   -3.1956    0.0000 H       1  UNL1        0.0235
     39 H           2.8827   -3.1964    0.0000 H       1  UNL1        0.0235
     40 H           3.7322   -3.4136    0.0000 H       1  UNL1        0.0235
     41 H           3.9494   -2.5640    0.0000 H       1  UNL1        0.0235
     42 H           4.1095    1.3599    0.0000 H       1  UNL1        0.0657
     43 H           6.9754   -0.2947    0.0000 H       1  UNL1        0.0624
     44 H           7.3156    0.9397    0.0000 H       1  UNL1        0.0345
     45 H           5.0060    2.8918    0.0000 H       1  UNL1        0.2921
     46 H           7.9419    2.5573    0.0000 H       1  UNL1        0.0235
     47 H           7.3243    3.1797    0.0000 H       1  UNL1        0.0235
     48 H           6.7019    2.5621    0.0000 H       1  UNL1        0.0235
     49 H           7.8701    0.5206    0.0000 H       1  UNL1        0.0235
     50 H           8.7179    0.7443    0.0000 H       1  UNL1        0.0235
     51 H           8.4942    1.5921    0.0000 H       1  UNL1        0.0235
@<TRIPOS>BOND
     1     1    18    1
     2     1    45    1
     3     2     3    1
     4     2     4    1
     5     2     7    1
     6     2    22    1
     7     3     5    1
     8     3     9    1
     9     3    11    1
    10     4     6    1
    11     4    13    1
    12     4    14    1
    13     5     8    1
    14     5    23    1
    15     5    24    1
    16     6     8    1
    17     6    25    1
    18     6    26    1
    19     7    10    1
    20     7    27    1
    21     7    28    1
    22     8    29    1
    23     8    30    1
    24     9    12   ar
    25     9    15   ar
    26    10    12    1
    27    10    31    1
    28    10    32    1
    29    11    33    1
    30    11    34    1
    31    11    35    1
    32    12    16   ar
    33    13    36    1
    34    13    37    1
    35    13    38    1
    36    14    39    1
    37    14    40    1
    38    14    41    1
    39    15    18   ar
    40    15    42    1
    41    16    17   ar
    42    16    43    1
    43    17    18   ar
    44    17    19    1
    45    19    20    1
    46    19    21    1
    47    19    44    1
    48    20    49    1
    49    20    50    1
    50    20    51    1
    51    21    46    1
    52    21    47    1
    53    21    48    1
