@<TRIPOS>MOLECULE
IMPHY013641
 99 104 0 0 0
SMALL
GASTEIGER

@<TRIPOS>ATOM
      1 O          14.8541   -0.7435    0.0000 O.3     1  UNL1       -0.3877
      2 O          17.0762    2.7266    0.0000 O.3     1  UNL1       -0.3918
      3 O           9.4651   -1.8166    0.0000 O.3     1  UNL1       -0.3477
      4 O           8.5991   -0.3166    0.0000 O.3     1  UNL1       -0.3456
      5 O           6.0010    0.1834    0.0000 O.3     1  UNL1       -0.3429
      6 O           6.0010   -1.8166    0.0000 O.3     1  UNL1       -0.3890
      7 O           4.2690    0.1834    0.0000 O.3     1  UNL1       -0.3456
      8 O           4.2690   -2.8166    0.0000 O.3     1  UNL1       -0.3770
      9 O           2.5369   -1.8166    0.0000 O.3     1  UNL1       -0.3867
     10 C          14.8464    1.2565    0.0000 C.3     1  UNL1        0.0022
     11 C          14.8503    0.2565    0.0000 C.3     1  UNL1        0.0751
     12 C          13.9862   -0.2468    0.0000 C.3     1  UNL1       -0.0046
     13 C          13.1182    0.2498    0.0000 C.3     1  UNL1       -0.0262
     14 C          15.7915    1.5649    0.0000 C.3     1  UNL1       -0.0071
     15 C          13.9785    1.7531    0.0000 C.3     1  UNL1       -0.0444
     16 C          12.2102   -0.2605    0.0000 C.3     1  UNL1       -0.0077
     17 C          15.7977   -0.0446    0.0000 C.3     1  UNL1       -0.0228
     18 C          13.1144    1.2498    0.0000 C.3     1  UNL1       -0.0485
     19 C          16.3782    0.7624    0.0000 C.3     1  UNL1       -0.0447
     20 C          14.0063   -1.2883    0.0000 C.3     1  UNL1       -0.0287
     21 C          14.8426    2.2565    0.0000 C.3     1  UNL1       -0.0566
     22 C          12.2062   -1.3022    0.0000 C.2     1  UNL1       -0.0648
     23 C          11.2812    0.3000    0.0000 C.3     1  UNL1       -0.0413
     24 C          16.0985    2.5166    0.0000 C.3     1  UNL1        0.0558
     25 C          13.1103   -1.8195    0.0000 C.2     1  UNL1       -0.0838
     26 C          12.2140    0.7395    0.0000 C.3     1  UNL1       -0.0556
     27 C          11.2729   -1.8555    0.0000 C.3     1  UNL1       -0.0047
     28 C          10.3353   -0.2316    0.0000 C.3     1  UNL1       -0.0254
     29 C          10.3312   -1.3166    0.0000 C.3     1  UNL1        0.0654
     30 C          15.4277    3.2583    0.0000 C.3     1  UNL1       -0.0387
     31 C           8.5991   -1.3166    0.0000 C.3     1  UNL1        0.1624
     32 C           7.7331   -1.8166    0.0000 C.3     1  UNL1        0.0270
     33 C           6.8671   -1.3166    0.0000 C.3     1  UNL1        0.0884
     34 C           7.7331    0.1834    0.0000 C.3     1  UNL1        0.0875
     35 C           6.8671   -0.3166    0.0000 C.3     1  UNL1        0.1134
     36 C           7.7331    1.1834    0.0000 C.3     1  UNL1       -0.0361
     37 C           5.1350   -0.3166    0.0000 C.3     1  UNL1        0.1626
     38 C           5.1350   -1.3166    0.0000 C.3     1  UNL1        0.0272
     39 C           4.2690   -1.8166    0.0000 C.3     1  UNL1        0.0911
     40 C           3.4030   -0.3166    0.0000 C.3     1  UNL1        0.0871
     41 C           3.4030   -1.3166    0.0000 C.3     1  UNL1        0.1073
     42 C           2.5369    0.1834    0.0000 C.3     1  UNL1       -0.0361
     43 C           5.1350   -3.3166    0.0000 C.3     1  UNL1        0.0369
     44 H          14.7272   -0.6633    0.0000 H       1  UNL1        0.0335
     45 H          13.8527    0.6776    0.0000 H       1  UNL1        0.0313
     46 H          16.6306    1.7000    0.0000 H       1  UNL1        0.0332
     47 H          14.3752    2.2296    0.0000 H       1  UNL1        0.0272
     48 H          13.5781    2.2266    0.0000 H       1  UNL1        0.0272
     49 H          15.5488   -0.6125    0.0000 H       1  UNL1        0.0293
     50 H          16.3362   -0.3517    0.0000 H       1  UNL1        0.0293
     51 H          12.9001    1.8316    0.0000 H       1  UNL1        0.0268
     52 H          12.5042    1.1398    0.0000 H       1  UNL1        0.0268
     53 H          16.8406    0.3494    0.0000 H       1  UNL1        0.0270
     54 H          16.8374    1.1789    0.0000 H       1  UNL1        0.0270
     55 H          14.2265   -1.8678    0.0000 H       1  UNL1        0.0311
     56 H          14.6150   -1.1704    0.0000 H       1  UNL1        0.0311
     57 H          15.4626    2.2589    0.0000 H       1  UNL1        0.0236
     58 H          14.8402    2.8765    0.0000 H       1  UNL1        0.0236
     59 H          14.2226    2.2541    0.0000 H       1  UNL1        0.0236
     60 H          11.6876    0.7682    0.0000 H       1  UNL1        0.0274
     61 H          10.8894    0.7805    0.0000 H       1  UNL1        0.0274
     62 H          16.2888    3.1066    0.0000 H       1  UNL1        0.0593
     63 H          13.1150   -2.4395    0.0000 H       1  UNL1        0.0572
     64 H          15.3923   -1.0514    0.0000 H       1  UNL1        0.2102
     65 H          12.8340    0.7371    0.0000 H       1  UNL1        0.0238
     66 H          12.2164    1.3594    0.0000 H       1  UNL1        0.0238
     67 H          11.5941    0.7418    0.0000 H       1  UNL1        0.0238
     68 H          10.8774   -2.3330    0.0000 H       1  UNL1        0.0335
     69 H          11.6757   -2.3268    0.0000 H       1  UNL1        0.0335
     70 H          10.1285    0.3529    0.0000 H       1  UNL1        0.0290
     71 H           9.7241   -0.3354    0.0000 H       1  UNL1        0.0290
     72 H           9.7948   -1.0056    0.0000 H       1  UNL1        0.0600
     73 H          15.8876    3.6741    0.0000 H       1  UNL1        0.0255
     74 H          15.0119    3.7182    0.0000 H       1  UNL1        0.0255
     75 H          14.9679    2.8424    0.0000 H       1  UNL1        0.0255
     76 H          17.2665    3.3166    0.0000 H       1  UNL1        0.2098
     77 H           8.5991   -1.9366    0.0000 H       1  UNL1        0.0910
     78 H           7.3346   -2.2916    0.0000 H       1  UNL1        0.0340
     79 H           8.1316   -2.2916    0.0000 H       1  UNL1        0.0340
     80 H           6.8671   -1.9366    0.0000 H       1  UNL1        0.0622
     81 H           8.2700    0.4934    0.0000 H       1  UNL1        0.0621
     82 H           6.8671    0.3034    0.0000 H       1  UNL1        0.0649
     83 H           8.3531    1.1834    0.0000 H       1  UNL1        0.0255
     84 H           7.7331    1.8034    0.0000 H       1  UNL1        0.0255
     85 H           7.1131    1.1834    0.0000 H       1  UNL1        0.0255
     86 H           6.0010   -2.4366    0.0000 H       1  UNL1        0.2099
     87 H           5.1350    0.3034    0.0000 H       1  UNL1        0.0910
     88 H           5.3471   -1.8992    0.0000 H       1  UNL1        0.0340
     89 H           5.7456   -1.2090    0.0000 H       1  UNL1        0.0340
     90 H           4.8059   -2.1266    0.0000 H       1  UNL1        0.0624
     91 H           3.4030    0.3034    0.0000 H       1  UNL1        0.0621
     92 H           3.4030   -1.9366    0.0000 H       1  UNL1        0.0645
     93 H           2.8469    0.7203    0.0000 H       1  UNL1        0.0255
     94 H           2.0000    0.4934    0.0000 H       1  UNL1        0.0255
     95 H           2.2269   -0.3536    0.0000 H       1  UNL1        0.0255
     96 H           2.0000   -1.5066    0.0000 H       1  UNL1        0.2100
     97 H           4.8250   -3.8536    0.0000 H       1  UNL1        0.0524
     98 H           5.6720   -3.6266    0.0000 H       1  UNL1        0.0524
     99 H           5.4450   -2.7797    0.0000 H       1  UNL1        0.0524
@<TRIPOS>BOND
     1    11     1    1
     2     1    64    1
     3    24     2    1
     4     2    76    1
     5    29     3    1
     6    31     3    1
     7     4    31    1
     8     4    34    1
     9    35     5    1
    10    37     5    1
    11    33     6    1
    12     6    86    1
    13     7    37    1
    14     7    40    1
    15    39     8    1
    16     8    43    1
    17    41     9    1
    18     9    96    1
    19    10    11    1
    20    10    14    1
    21    10    15    1
    22    10    21    1
    23    11    12    1
    24    11    17    1
    25    12    13    1
    26    12    20    1
    27    12    44    1
    28    13    16    1
    29    13    18    1
    30    13    45    1
    31    14    19    1
    32    14    24    1
    33    14    46    1
    34    15    18    1
    35    15    47    1
    36    15    48    1
    37    16    22    1
    38    16    23    1
    39    16    26    1
    40    17    19    1
    41    17    49    1
    42    17    50    1
    43    18    51    1
    44    18    52    1
    45    19    53    1
    46    19    54    1
    47    20    25    1
    48    20    55    1
    49    20    56    1
    50    21    57    1
    51    21    58    1
    52    21    59    1
    53    22    25    2
    54    22    27    1
    55    23    28    1
    56    23    60    1
    57    23    61    1
    58    24    30    1
    59    24    62    1
    60    25    63    1
    61    26    65    1
    62    26    66    1
    63    26    67    1
    64    27    29    1
    65    27    68    1
    66    27    69    1
    67    28    29    1
    68    28    70    1
    69    28    71    1
    70    29    72    1
    71    30    73    1
    72    30    74    1
    73    30    75    1
    74    31    32    1
    75    31    77    1
    76    32    33    1
    77    32    78    1
    78    32    79    1
    79    33    35    1
    80    33    80    1
    81    34    35    1
    82    34    36    1
    83    34    81    1
    84    35    82    1
    85    36    83    1
    86    36    84    1
    87    36    85    1
    88    37    38    1
    89    37    87    1
    90    38    39    1
    91    38    88    1
    92    38    89    1
    93    39    41    1
    94    39    90    1
    95    40    41    1
    96    40    42    1
    97    40    91    1
    98    41    92    1
    99    42    93    1
   100    42    94    1
   101    42    95    1
   102    43    97    1
   103    43    98    1
   104    43    99    1
