@<TRIPOS>MOLECULE
IMPHY017141
 22 21 0 0 0
SMALL
GASTEIGER

@<TRIPOS>ATOM
      1 O           9.7942    0.2500    0.0000 O.2     1  UNL1       -0.2963
      2 C           2.8660    0.2500    0.0000 C.3     1  UNL1       -0.0373
      3 C           3.7320   -0.2500    0.0000 C.2     1  UNL1       -0.0843
      4 C           2.0000   -0.2500    0.0000 C.3     1  UNL1       -0.0618
      5 C           4.5981    0.2500    0.0000 C.2     1  UNL1       -0.0657
      6 C           5.4641   -0.2500    0.0000 C.2     1  UNL1       -0.0621
      7 C           6.3301    0.2500    0.0000 C.2     1  UNL1       -0.0617
      8 C           7.1962   -0.2500    0.0000 C.2     1  UNL1       -0.0587
      9 C           8.0622    0.2500    0.0000 C.2     1  UNL1       -0.0224
     10 C           8.9282   -0.2500    0.0000 C.2     1  UNL1        0.1431
     11 H           3.2646    0.7249    0.0000 H       1  UNL1        0.0305
     12 H           2.4675    0.7249    0.0000 H       1  UNL1        0.0305
     13 H           3.7320   -0.8700    0.0000 H       1  UNL1        0.0572
     14 H           1.6900    0.2869    0.0000 H       1  UNL1        0.0233
     15 H           1.4631   -0.5600    0.0000 H       1  UNL1        0.0233
     16 H           2.3100   -0.7869    0.0000 H       1  UNL1        0.0233
     17 H           4.5981    0.8700    0.0000 H       1  UNL1        0.0614
     18 H           5.4641   -0.8700    0.0000 H       1  UNL1        0.0617
     19 H           6.3301    0.8700    0.0000 H       1  UNL1        0.0618
     20 H           7.1962   -0.8700    0.0000 H       1  UNL1        0.0619
     21 H           8.0622    0.8700    0.0000 H       1  UNL1        0.0649
     22 H           8.9282   -0.8700    0.0000 H       1  UNL1        0.1075
@<TRIPOS>BOND
     1     1    10    2
     2     2     3    1
     3     2     4    1
     4     2    11    1
     5     2    12    1
     6     3     5    2
     7     3    13    1
     8     4    14    1
     9     4    15    1
    10     4    16    1
    11     5     6    1
    12     5    17    1
    13     6     7    2
    14     6    18    1
    15     7     8    1
    16     7    19    1
    17     8     9    2
    18     8    20    1
    19     9    10    1
    20     9    21    1
    21    10    22    1
