@<TRIPOS>MOLECULE
IMPHY006035
 14 14 0 0 0
SMALL
GASTEIGER

@<TRIPOS>ATOM
      1 S           4.5981    2.0000    0.0000 S.2     1  UNL1        0.0207
      2 N           2.8660    1.0000    0.0000 N.2     1  UNL1       -0.1974
      3 C           2.8660    0.0000    0.0000 C.ar    1  UNL1        0.0743
      4 C           2.0000   -0.5000    0.0000 C.ar    1  UNL1       -0.0355
      5 C           3.7320   -0.5000    0.0000 C.ar    1  UNL1       -0.0355
      6 C           2.0000   -1.5000    0.0000 C.ar    1  UNL1       -0.0597
      7 C           3.7320   -1.5000    0.0000 C.ar    1  UNL1       -0.0597
      8 C           2.8660   -2.0000    0.0000 C.ar    1  UNL1       -0.0616
      9 C           3.7320    1.5000    0.0000 C.1     1  UNL1        0.0414
     10 H           1.4631   -0.1900    0.0000 H       1  UNL1        0.0639
     11 H           4.2690   -0.1900    0.0000 H       1  UNL1        0.0639
     12 H           1.4631   -1.8100    0.0000 H       1  UNL1        0.0618
     13 H           4.2690   -1.8100    0.0000 H       1  UNL1        0.0618
     14 H           2.8660   -2.6200    0.0000 H       1  UNL1        0.0618
@<TRIPOS>BOND
     1     1     9    2
     2     2     3    1
     3     2     9    2
     4     3     4   ar
     5     3     5   ar
     6     4     6   ar
     7     4    10    1
     8     5     7   ar
     9     5    11    1
    10     6     8   ar
    11     6    12    1
    12     7     8   ar
    13     7    13    1
    14     8    14    1
