@<TRIPOS>MOLECULE
IMPHY017882
 42 41 0 0 0
SMALL
GASTEIGER

@<TRIPOS>ATOM
      1 O           3.7320   -1.0000    0.0000 O.3     1  UNL1       -0.4600
      2 O           4.5981   -2.5000    0.0000 O.2     1  UNL1       -0.2505
      3 C           5.4641    1.0000    0.0000 C.3     1  UNL1       -0.0224
      4 C           2.8660    2.5000    0.0000 C.3     1  UNL1       -0.0433
      5 C           4.5981    0.5000    0.0000 C.2     1  UNL1       -0.0340
      6 C           3.7320    2.0000    0.0000 C.3     1  UNL1       -0.0321
      7 C           3.7320    1.0000    0.0000 C.2     1  UNL1       -0.0811
      8 C           4.5981   -0.5000    0.0000 C.3     1  UNL1        0.1138
      9 C           6.3301    0.5000    0.0000 C.3     1  UNL1       -0.0588
     10 C           5.4641    2.0000    0.0000 C.3     1  UNL1       -0.0588
     11 C           2.8660    3.5000    0.0000 C.3     1  UNL1       -0.0624
     12 C           2.0000    2.0000    0.0000 C.3     1  UNL1       -0.0624
     13 C           2.8660   -2.5000    0.0000 C.3     1  UNL1        0.0508
     14 C           3.7320   -2.0000    0.0000 C.2     1  UNL1        0.3100
     15 C           2.8660   -3.5000    0.0000 C.3     1  UNL1       -0.0525
     16 C           2.0000   -2.0000    0.0000 C.3     1  UNL1       -0.0525
     17 H           5.4641    0.3800    0.0000 H       1  UNL1        0.0341
     18 H           2.8660    1.8800    0.0000 H       1  UNL1        0.0298
     19 H           4.3426    1.8923    0.0000 H       1  UNL1        0.0310
     20 H           3.9441    2.5826    0.0000 H       1  UNL1        0.0310
     21 H           3.1951    0.6900    0.0000 H       1  UNL1        0.0573
     22 H           4.8101   -1.0826    0.0000 H       1  UNL1        0.0745
     23 H           5.2087   -0.3923    0.0000 H       1  UNL1        0.0745
     24 H           6.0201   -0.0369    0.0000 H       1  UNL1        0.0235
     25 H           6.8671    0.1900    0.0000 H       1  UNL1        0.0235
     26 H           6.6401    1.0369    0.0000 H       1  UNL1        0.0235
     27 H           6.0841    2.0000    0.0000 H       1  UNL1        0.0235
     28 H           5.4641    2.6200    0.0000 H       1  UNL1        0.0235
     29 H           4.8441    2.0000    0.0000 H       1  UNL1        0.0235
     30 H           3.4860    3.5000    0.0000 H       1  UNL1        0.0232
     31 H           2.8660    4.1200    0.0000 H       1  UNL1        0.0232
     32 H           2.2460    3.5000    0.0000 H       1  UNL1        0.0232
     33 H           1.6900    2.5369    0.0000 H       1  UNL1        0.0232
     34 H           1.4631    1.6900    0.0000 H       1  UNL1        0.0232
     35 H           2.3100    1.4631    0.0000 H       1  UNL1        0.0232
     36 H           2.8660   -1.8800    0.0000 H       1  UNL1        0.0408
     37 H           2.2460   -3.5000    0.0000 H       1  UNL1        0.0237
     38 H           2.8660   -4.1200    0.0000 H       1  UNL1        0.0237
     39 H           3.4860   -3.5000    0.0000 H       1  UNL1        0.0237
     40 H           2.3100   -1.4631    0.0000 H       1  UNL1        0.0237
     41 H           1.4631   -1.6900    0.0000 H       1  UNL1        0.0237
     42 H           1.6900   -2.5369    0.0000 H       1  UNL1        0.0237
@<TRIPOS>BOND
     1     1     8    1
     2     1    14    1
     3     2    14    2
     4     3     5    1
     5     3     9    1
     6     3    10    1
     7     3    17    1
     8     4     6    1
     9     4    11    1
    10     4    12    1
    11     4    18    1
    12     5     7    2
    13     5     8    1
    14     6     7    1
    15     6    19    1
    16     6    20    1
    17     7    21    1
    18     8    22    1
    19     8    23    1
    20     9    24    1
    21     9    25    1
    22     9    26    1
    23    10    27    1
    24    10    28    1
    25    10    29    1
    26    11    30    1
    27    11    31    1
    28    11    32    1
    29    12    33    1
    30    12    34    1
    31    12    35    1
    32    13    14    1
    33    13    15    1
    34    13    16    1
    35    13    36    1
    36    15    37    1
    37    15    38    1
    38    15    39    1
    39    16    40    1
    40    16    41    1
    41    16    42    1
