@<TRIPOS>MOLECULE
IMPHY017758
 23 22 0 0 0
SMALL
GASTEIGER

@<TRIPOS>ATOM
      1 S           3.7320    0.7500    0.0000 S.3     1  UNL1       -0.0790
      2 S           5.4641    0.7500    0.0000 S.3     1  UNL1       -0.0790
      3 S           4.5981    0.2500    0.0000 S.3     1  UNL1       -0.0237
      4 C           2.8660    0.2500    0.0000 C.3     1  UNL1        0.0106
      5 C           6.3301    0.2500    0.0000 C.3     1  UNL1        0.0106
      6 C           2.0000    0.7500    0.0000 C.3     1  UNL1       -0.0528
      7 C           2.8660   -0.7500    0.0000 C.3     1  UNL1       -0.0528
      8 C           7.1962    0.7500    0.0000 C.3     1  UNL1       -0.0528
      9 C           6.3301   -0.7500    0.0000 C.3     1  UNL1       -0.0528
     10 H           2.8660    0.8700    0.0000 H       1  UNL1        0.0415
     11 H           6.8671   -0.0600    0.0000 H       1  UNL1        0.0415
     12 H           2.3100    1.2869    0.0000 H       1  UNL1        0.0240
     13 H           1.4631    1.0600    0.0000 H       1  UNL1        0.0240
     14 H           1.6900    0.2131    0.0000 H       1  UNL1        0.0240
     15 H           2.2460   -0.7500    0.0000 H       1  UNL1        0.0240
     16 H           2.8660   -1.3700    0.0000 H       1  UNL1        0.0240
     17 H           3.4860   -0.7500    0.0000 H       1  UNL1        0.0240
     18 H           7.5062    0.2131    0.0000 H       1  UNL1        0.0240
     19 H           7.7331    1.0600    0.0000 H       1  UNL1        0.0240
     20 H           6.8862    1.2869    0.0000 H       1  UNL1        0.0240
     21 H           5.7101   -0.7500    0.0000 H       1  UNL1        0.0240
     22 H           6.3301   -1.3700    0.0000 H       1  UNL1        0.0240
     23 H           6.9501   -0.7500    0.0000 H       1  UNL1        0.0240
@<TRIPOS>BOND
     1     1     3    1
     2     1     4    1
     3     2     3    1
     4     2     5    1
     5     4     6    1
     6     4     7    1
     7     4    10    1
     8     5     8    1
     9     5     9    1
    10     5    11    1
    11     6    12    1
    12     6    13    1
    13     6    14    1
    14     7    15    1
    15     7    16    1
    16     7    17    1
    17     8    18    1
    18     8    19    1
    19     8    20    1
    20     9    21    1
    21     9    22    1
    22     9    23    1
