@<TRIPOS>MOLECULE
IMPHY010224
 69 73 0 0 0
SMALL
GASTEIGER

@<TRIPOS>ATOM
      1 O           7.4149   -2.1974    0.0000 O.3     1  UNL1       -0.4580
      2 O           5.6489   -3.2352    0.0000 O.3     1  UNL1       -0.3878
      3 O           2.0000   -2.2183    0.0000 O.2     1  UNL1       -0.2921
      4 O           9.6033    3.3967    0.0000 O.2     1  UNL1       -0.4708
      5 O           6.5662   -3.7073    0.0000 O.2     1  UNL1       -0.2512
      6 C           6.5271   -0.6660    0.0000 C.3     1  UNL1        0.0325
      7 C           5.6610   -0.1660    0.0000 C.3     1  UNL1       -0.0192
      8 C           4.7510   -0.6728    0.0000 C.3     1  UNL1       -0.0038
      9 C           4.7430   -1.7144    0.0000 C.3     1  UNL1        0.0098
     10 C           7.3931    0.8340    0.0000 C.3     1  UNL1       -0.0033
     11 C           6.5431   -1.7075    0.0000 C.3     1  UNL1        0.1383
     12 C           7.3931   -0.1660    0.0000 C.2     1  UNL1       -0.0572
     13 C           5.6610    0.8340    0.0000 C.3     1  UNL1       -0.0477
     14 C           5.6451   -2.2352    0.0000 C.3     1  UNL1        0.0974
     15 C           6.5271    1.3340    0.0000 C.3     1  UNL1       -0.0430
     16 C           3.8076   -2.2641    0.0000 C.3     1  UNL1        0.0334
     17 C           8.3393    1.1388    0.0000 C.3     1  UNL1       -0.0004
     18 C           7.3931   -1.1660    0.0000 C.3     1  UNL1       -0.0521
     19 C           4.7587    0.3272    0.0000 C.3     1  UNL1       -0.0554
     20 C           3.8242   -0.1087    0.0000 C.2     1  UNL1       -0.0741
     21 C           8.3393   -0.4707    0.0000 C.2     1  UNL1       -0.0830
     22 C           8.9229    0.3340    0.0000 C.3     1  UNL1       -0.0267
     23 C           7.3931    1.8340    0.0000 C.3     1  UNL1       -0.0553
     24 C           2.8680   -1.7216    0.0000 C.2     1  UNL1        0.1618
     25 C           2.8763   -0.6367    0.0000 C.2     1  UNL1       -0.0220
     26 C           3.3109   -3.1321    0.0000 C.3     1  UNL1       -0.0524
     27 C           4.3109   -3.1282    0.0000 C.3     1  UNL1       -0.0524
     28 C           8.6500    2.0893    0.0000 C.ar    1  UNL1       -0.0055
     29 C           7.4264   -3.1974    0.0000 C.2     1  UNL1        0.3043
     30 C           8.0636    2.8993    0.0000 C.ar    1  UNL1       -0.0204
     31 C           9.6016    2.3967    0.0000 C.ar    1  UNL1        0.0951
     32 C           8.6528    3.7073    0.0000 C.ar    1  UNL1        0.0920
     33 C           8.2982   -3.6873    0.0000 C.3     1  UNL1        0.0332
     34 H           6.3972    0.2590    0.0000 H       1  UNL1        0.0319
     35 H           4.7463   -2.5644    0.0000 H       1  UNL1        0.0345
     36 H           6.5491   -2.3274    0.0000 H       1  UNL1        0.0769
     37 H           5.4490    1.4166    0.0000 H       1  UNL1        0.0269
     38 H           5.0504    0.7264    0.0000 H       1  UNL1        0.0269
     39 H           5.1087   -2.5462    0.0000 H       1  UNL1        0.0634
     40 H           6.9256    1.8090    0.0000 H       1  UNL1        0.0274
     41 H           6.1285    1.8090    0.0000 H       1  UNL1        0.0274
     42 H           8.9518    1.2350    0.0000 H       1  UNL1        0.0361
     43 H           7.0831   -1.7029    0.0000 H       1  UNL1        0.0239
     44 H           7.9300   -1.4760    0.0000 H       1  UNL1        0.0239
     45 H           7.7031   -0.6290    0.0000 H       1  UNL1        0.0239
     46 H           5.3787    0.3224    0.0000 H       1  UNL1        0.0238
     47 H           4.7635    0.9472    0.0000 H       1  UNL1        0.0238
     48 H           4.1388    0.3319    0.0000 H       1  UNL1        0.0238
     49 H           3.8361    0.5112    0.0000 H       1  UNL1        0.0579
     50 H           8.5319   -1.0600    0.0000 H       1  UNL1        0.0572
     51 H           9.3838   -0.0807    0.0000 H       1  UNL1        0.0314
     52 H           9.3838    0.7488    0.0000 H       1  UNL1        0.0314
     53 H           8.0131    1.8340    0.0000 H       1  UNL1        0.0238
     54 H           7.3931    2.4540    0.0000 H       1  UNL1        0.0238
     55 H           6.7731    1.8340    0.0000 H       1  UNL1        0.0238
     56 H           2.3430   -0.3205    0.0000 H       1  UNL1        0.0649
     57 H           2.7728   -2.8241    0.0000 H       1  UNL1        0.0239
     58 H           3.0030   -3.6702    0.0000 H       1  UNL1        0.0239
     59 H           3.8490   -3.4400    0.0000 H       1  UNL1        0.0239
     60 H           3.7752   -3.4403    0.0000 H       1  UNL1        0.0239
     61 H           4.6230   -3.6640    0.0000 H       1  UNL1        0.0239
     62 H           4.8466   -2.8162    0.0000 H       1  UNL1        0.0239
     63 H           5.1132   -3.5473    0.0000 H       1  UNL1        0.2100
     64 H           7.4436    2.9004    0.0000 H       1  UNL1        0.0652
     65 H          10.1025    2.0314    0.0000 H       1  UNL1        0.1032
     66 H           8.4622    4.2973    0.0000 H       1  UNL1        0.1029
     67 H           7.9944   -4.2278    0.0000 H       1  UNL1        0.0342
     68 H           8.8387   -3.9911    0.0000 H       1  UNL1        0.0342
     69 H           8.6020   -3.1468    0.0000 H       1  UNL1        0.0342
@<TRIPOS>BOND
     1    11     1    1
     2     1    29    1
     3    14     2    1
     4     2    63    1
     5     3    24    2
     6     4    31   ar
     7     4    32   ar
     8     5    29    2
     9     6     7    1
    10     6    11    1
    11     6    12    1
    12     6    18    1
    13     7     8    1
    14     7    13    1
    15     7    34    1
    16     8     9    1
    17     8    19    1
    18     8    20    1
    19     9    14    1
    20     9    16    1
    21     9    35    1
    22    10    12    1
    23    10    15    1
    24    10    17    1
    25    10    23    1
    26    11    14    1
    27    11    36    1
    28    12    21    2
    29    13    15    1
    30    13    37    1
    31    13    38    1
    32    14    39    1
    33    15    40    1
    34    15    41    1
    35    16    24    1
    36    16    26    1
    37    16    27    1
    38    17    22    1
    39    17    28    1
    40    17    42    1
    41    18    43    1
    42    18    44    1
    43    18    45    1
    44    19    46    1
    45    19    47    1
    46    19    48    1
    47    20    25    2
    48    20    49    1
    49    21    22    1
    50    21    50    1
    51    22    51    1
    52    22    52    1
    53    23    53    1
    54    23    54    1
    55    23    55    1
    56    24    25    1
    57    25    56    1
    58    26    57    1
    59    26    58    1
    60    26    59    1
    61    27    60    1
    62    27    61    1
    63    27    62    1
    64    28    30   ar
    65    28    31   ar
    66    29    33    1
    67    30    32   ar
    68    30    64    1
    69    31    65    1
    70    32    66    1
    71    33    67    1
    72    33    68    1
    73    33    69    1
