@<TRIPOS>MOLECULE
IMPHY004594
 81 84 0 0 0
SMALL
GASTEIGER

@<TRIPOS>ATOM
      1 O           6.8671   -2.7500    0.0000 O.3     1  UNL1       -0.3389
      2 O           6.8671    0.2500    0.0000 O.3     1  UNL1       -0.3394
      3 O           5.1350   -2.7500    0.0000 O.3     1  UNL1       -0.3405
      4 O           8.5991   -1.7500    0.0000 O.3     1  UNL1       -0.4528
      5 O           5.1350    0.2500    0.0000 O.3     1  UNL1       -0.3484
      6 O           5.1350   -1.7500    0.0000 O.3     1  UNL1       -0.3841
      7 O           6.8671   -4.7500    0.0000 O.3     1  UNL1       -0.3841
      8 O           5.1350   -5.7500    0.0000 O.3     1  UNL1       -0.3864
      9 O           3.4030   -4.7500    0.0000 O.3     1  UNL1       -0.3865
     10 O           8.5991    1.2500    0.0000 O.3     1  UNL1       -0.3923
     11 O           2.5369   -3.2500    0.0000 O.3     1  UNL1       -0.3924
     12 O           9.4651   -0.2500    0.0000 O.2     1  UNL1       -0.2456
     13 O           6.0010    4.7500    0.0000 O.3     1  UNL1       -0.5033
     14 O           4.2690    5.7500    0.0000 O.3     1  UNL1       -0.5033
     15 O          12.9292   -4.2500    0.0000 O.3     1  UNL1       -0.5033
     16 O          14.6613   -3.2500    0.0000 O.3     1  UNL1       -0.5033
     17 C           6.8671   -1.7500    0.0000 C.3     1  UNL1        0.1316
     18 C           7.7331   -1.2500    0.0000 C.3     1  UNL1        0.1602
     19 C           6.0010   -1.2500    0.0000 C.3     1  UNL1        0.1355
     20 C           7.7331   -0.2500    0.0000 C.3     1  UNL1        0.1240
     21 C           6.0010   -3.2500    0.0000 C.3     1  UNL1        0.1885
     22 C           6.0010   -4.2500    0.0000 C.3     1  UNL1        0.1341
     23 C           6.0010   -0.2500    0.0000 C.3     1  UNL1        0.1880
     24 C           5.1350   -4.7500    0.0000 C.3     1  UNL1        0.1141
     25 C           4.2690   -4.2500    0.0000 C.3     1  UNL1        0.1119
     26 C           4.2690   -3.2500    0.0000 C.3     1  UNL1        0.1130
     27 C           8.5991    0.2500    0.0000 C.3     1  UNL1        0.0741
     28 C           3.4030   -2.7500    0.0000 C.3     1  UNL1        0.0730
     29 C           5.1350    1.2500    0.0000 C.3     1  UNL1        0.0547
     30 C           9.4651   -1.2500    0.0000 C.2     1  UNL1        0.3324
     31 C           4.2690    1.7500    0.0000 C.3     1  UNL1       -0.0039
     32 C          10.3312   -1.7500    0.0000 C.2     1  UNL1        0.0231
     33 C           4.2690    2.7500    0.0000 C.ar    1  UNL1       -0.0415
     34 C          11.1972   -1.2500    0.0000 C.2     1  UNL1       -0.0477
     35 C           5.1350    3.2500    0.0000 C.ar    1  UNL1       -0.0133
     36 C           3.4030    3.2500    0.0000 C.ar    1  UNL1       -0.0548
     37 C           5.1350    4.2500    0.0000 C.ar    1  UNL1        0.1585
     38 C           3.4030    4.2500    0.0000 C.ar    1  UNL1       -0.0163
     39 C          12.0632   -1.7500    0.0000 C.ar    1  UNL1       -0.0211
     40 C           4.2690    4.7500    0.0000 C.ar    1  UNL1        0.1582
     41 C          12.0632   -2.7500    0.0000 C.ar    1  UNL1       -0.0094
     42 C          12.9292   -1.2500    0.0000 C.ar    1  UNL1       -0.0509
     43 C          12.9292   -3.2500    0.0000 C.ar    1  UNL1        0.1588
     44 C          13.7953   -1.7500    0.0000 C.ar    1  UNL1       -0.0160
     45 C          13.7953   -2.7500    0.0000 C.ar    1  UNL1        0.1582
     46 H           7.4040   -2.0600    0.0000 H       1  UNL1        0.0663
     47 H           8.2700   -0.9400    0.0000 H       1  UNL1        0.0788
     48 H           6.0010   -1.8700    0.0000 H       1  UNL1        0.0671
     49 H           7.7331    0.3700    0.0000 H       1  UNL1        0.0658
     50 H           6.0010   -2.6300    0.0000 H       1  UNL1        0.0938
     51 H           6.0010   -4.8700    0.0000 H       1  UNL1        0.0671
     52 H           6.0010    0.3700    0.0000 H       1  UNL1        0.0937
     53 H           4.5981   -5.0600    0.0000 H       1  UNL1        0.0648
     54 H           3.7320   -3.9400    0.0000 H       1  UNL1        0.0647
     55 H           4.2690   -2.6300    0.0000 H       1  UNL1        0.0647
     56 H           8.8112   -0.3326    0.0000 H       1  UNL1        0.0584
     57 H           9.2097    0.3577    0.0000 H       1  UNL1        0.0584
     58 H           3.8015   -2.2750    0.0000 H       1  UNL1        0.0584
     59 H           3.0044   -2.2750    0.0000 H       1  UNL1        0.0584
     60 H           4.5981   -1.4400    0.0000 H       1  UNL1        0.2101
     61 H           6.8671   -5.3700    0.0000 H       1  UNL1        0.2101
     62 H           4.5981   -6.0600    0.0000 H       1  UNL1        0.2100
     63 H           3.4030   -5.3700    0.0000 H       1  UNL1        0.2100
     64 H           5.7456    1.1423    0.0000 H       1  UNL1        0.0564
     65 H           5.3471    1.8326    0.0000 H       1  UNL1        0.0564
     66 H           9.1360    1.5600    0.0000 H       1  UNL1        0.2095
     67 H           3.6584    1.8577    0.0000 H       1  UNL1        0.0335
     68 H           4.0569    1.1674    0.0000 H       1  UNL1        0.0335
     69 H           2.0000   -2.9400    0.0000 H       1  UNL1        0.2095
     70 H          10.3312   -2.3700    0.0000 H       1  UNL1        0.0689
     71 H          11.1972   -0.6300    0.0000 H       1  UNL1        0.0626
     72 H           5.6720    2.9400    0.0000 H       1  UNL1        0.0658
     73 H           2.8660    2.9400    0.0000 H       1  UNL1        0.0621
     74 H           2.8660    4.5600    0.0000 H       1  UNL1        0.0655
     75 H          11.5263   -3.0600    0.0000 H       1  UNL1        0.0661
     76 H          12.9292   -0.6300    0.0000 H       1  UNL1        0.0625
     77 H           6.0010    5.3700    0.0000 H       1  UNL1        0.2923
     78 H           3.7320    6.0600    0.0000 H       1  UNL1        0.2923
     79 H          14.3322   -1.4400    0.0000 H       1  UNL1        0.0655
     80 H          13.4662   -4.5600    0.0000 H       1  UNL1        0.2923
     81 H          15.1982   -2.9400    0.0000 H       1  UNL1        0.2923
@<TRIPOS>BOND
     1    17     1    1
     2    21     1    1
     3     2    20    1
     4     2    23    1
     5     3    21    1
     6     3    26    1
     7    18     4    1
     8     4    30    1
     9    23     5    1
    10     5    29    1
    11    19     6    1
    12     6    60    1
    13    22     7    1
    14     7    61    1
    15    24     8    1
    16     8    62    1
    17    25     9    1
    18     9    63    1
    19    10    27    1
    20    10    66    1
    21    11    28    1
    22    11    69    1
    23    12    30    2
    24    13    37    1
    25    13    77    1
    26    14    40    1
    27    14    78    1
    28    15    43    1
    29    15    80    1
    30    16    45    1
    31    16    81    1
    32    17    18    1
    33    17    19    1
    34    17    46    1
    35    18    20    1
    36    18    47    1
    37    19    23    1
    38    19    48    1
    39    20    27    1
    40    20    49    1
    41    21    22    1
    42    21    50    1
    43    22    24    1
    44    22    51    1
    45    23    52    1
    46    24    25    1
    47    24    53    1
    48    25    26    1
    49    25    54    1
    50    26    28    1
    51    26    55    1
    52    27    56    1
    53    27    57    1
    54    28    58    1
    55    28    59    1
    56    29    31    1
    57    29    64    1
    58    29    65    1
    59    30    32    1
    60    31    33    1
    61    31    67    1
    62    31    68    1
    63    32    34    2
    64    32    70    1
    65    33    35   ar
    66    33    36   ar
    67    34    39    1
    68    34    71    1
    69    35    37   ar
    70    35    72    1
    71    36    38   ar
    72    36    73    1
    73    37    40   ar
    74    38    40   ar
    75    38    74    1
    76    39    41   ar
    77    39    42   ar
    78    41    43   ar
    79    41    75    1
    80    42    44   ar
    81    42    76    1
    82    43    45   ar
    83    44    45   ar
    84    44    79    1
