@<TRIPOS>MOLECULE
IMPHY012542
 46 49 0 0 0
SMALL
GASTEIGER

@<TRIPOS>ATOM
      1 O           6.2621   -2.7320    0.0000 O.3     1  UNL1       -0.3611
      2 O           3.5836   -2.0363    0.0000 O.3     1  UNL1       -0.4546
      3 O           8.6152   -0.9495    0.0000 O.3     1  UNL1       -0.4538
      4 O           5.3958    0.7685    0.0000 O.3     1  UNL1       -0.4570
      5 O           2.0000   -1.2315    0.0000 O.2     1  UNL1       -0.2453
      6 O           8.5505    0.8160    0.0000 O.2     1  UNL1       -0.2453
      7 O           7.1279    0.7685    0.0000 O.2     1  UNL1       -0.2453
      8 C           6.2619   -1.7315    0.0000 C.3     1  UNL1        0.1005
      9 C           5.3958   -2.2315    0.0000 C.3     1  UNL1        0.1256
     10 C           4.5298   -1.7315    0.0000 C.3     1  UNL1        0.1424
     11 C           7.1279   -2.2315    0.0000 C.3     1  UNL1        0.0196
     12 C           4.5298   -0.7315    0.0000 C.3     1  UNL1        0.0673
     13 C           7.1279   -1.2315    0.0000 C.3     1  UNL1       -0.0331
     14 C           5.3958   -0.2315    0.0000 C.3     1  UNL1        0.1180
     15 C           7.9939   -1.7315    0.0000 C.3     1  UNL1        0.1250
     16 C           3.5836   -0.4268    0.0000 C.2     1  UNL1        0.0397
     17 C           6.2619   -0.7315    0.0000 C.3     1  UNL1        0.0169
     18 C           7.9939   -0.7315    0.0000 C.2     1  UNL1       -0.0338
     19 C           7.1279   -0.2315    0.0000 C.2     1  UNL1        0.0396
     20 C           3.0000   -1.2315    0.0000 C.2     1  UNL1        0.3355
     21 C           8.1158   -0.0846    0.0000 C.2     1  UNL1        0.3356
     22 C           3.2729    0.5237    0.0000 C.2     1  UNL1       -0.0882
     23 C           6.2619    1.2685    0.0000 C.2     1  UNL1        0.3346
     24 C           6.2619    2.2685    0.0000 C.2     1  UNL1        0.0265
     25 C           7.1279    2.7685    0.0000 C.3     1  UNL1       -0.0335
     26 C           5.3958    2.7685    0.0000 C.2     1  UNL1       -0.0890
     27 H           4.9708   -2.9676    0.0000 H       1  UNL1        0.0662
     28 H           4.1050   -2.4677    0.0000 H       1  UNL1        0.0769
     29 H           6.7294   -2.7065    0.0000 H       1  UNL1        0.0333
     30 H           7.5264   -2.7065    0.0000 H       1  UNL1        0.0333
     31 H           4.5298    0.1185    0.0000 H       1  UNL1        0.0424
     32 H           7.4379   -1.7685    0.0000 H       1  UNL1        0.0258
     33 H           7.6648   -0.9215    0.0000 H       1  UNL1        0.0258
     34 H           6.8179   -0.6946    0.0000 H       1  UNL1        0.0258
     35 H           5.9328    0.0785    0.0000 H       1  UNL1        0.0744
     36 H           8.5490   -2.3753    0.0000 H       1  UNL1        0.0780
     37 H           5.8633   -1.2065    0.0000 H       1  UNL1        0.0351
     38 H           6.6604   -1.2065    0.0000 H       1  UNL1        0.0351
     39 H           8.5309   -0.4215    0.0000 H       1  UNL1        0.0613
     40 H           3.6870    0.9852    0.0000 H       1  UNL1        0.0540
     41 H           2.6663    0.6516    0.0000 H       1  UNL1        0.0540
     42 H           7.4379    2.2315    0.0000 H       1  UNL1        0.0280
     43 H           7.6648    3.0785    0.0000 H       1  UNL1        0.0280
     44 H           6.8179    3.3054    0.0000 H       1  UNL1        0.0280
     45 H           5.3958    3.3885    0.0000 H       1  UNL1        0.0540
     46 H           4.8589    2.4585    0.0000 H       1  UNL1        0.0540
@<TRIPOS>BOND
     1     1     8    1
     2     1     9    1
     3     2    10    1
     4     2    20    1
     5     3    15    1
     6     3    21    1
     7    14     4    1
     8     4    23    1
     9     5    20    2
    10     6    21    2
    11     7    23    2
    12     8     9    1
    13     8    11    1
    14     8    13    1
    15     9    10    1
    16     9    27    1
    17    10    12    1
    18    10    28    1
    19    11    15    1
    20    11    29    1
    21    11    30    1
    22    12    14    1
    23    12    16    1
    24    12    31    1
    25    13    32    1
    26    13    33    1
    27    13    34    1
    28    14    17    1
    29    14    35    1
    30    15    18    1
    31    15    36    1
    32    16    20    1
    33    16    22    2
    34    17    19    1
    35    17    37    1
    36    17    38    1
    37    18    19    2
    38    18    39    1
    39    19    21    1
    40    22    40    1
    41    22    41    1
    42    23    24    1
    43    24    25    1
    44    24    26    2
    45    25    42    1
    46    25    43    1
    47    25    44    1
    48    26    45    1
    49    26    46    1
