@<TRIPOS>MOLECULE
IMPHY006501
 53 58 0 0 0
SMALL
GASTEIGER

@<TRIPOS>ATOM
      1 O           6.1979   -0.6502    0.0000 O.3     1  UNL1       -0.3582
      2 O           3.5548    0.8567    0.0000 O.3     1  UNL1       -0.3589
      3 O           2.6512    0.3598    0.0000 O.3     1  UNL1       -0.3858
      4 O           4.4093   -2.7126    0.0000 O.3     1  UNL1       -0.3862
      5 O           2.5033   -1.1879    0.0000 O.3     1  UNL1       -0.3830
      6 O           8.2865    3.0205    0.0000 O.3     1  UNL1       -0.4569
      7 O           9.6958    1.8796    0.0000 O.2     1  UNL1       -0.2453
      8 C           5.2874   -0.1433    0.0000 C.3     1  UNL1        0.1381
      9 C           4.4214    0.3567    0.0000 C.3     1  UNL1        0.1560
     10 C           6.1534    0.3567    0.0000 C.3     1  UNL1        0.0094
     11 C           5.3034   -1.1848    0.0000 C.3     1  UNL1        0.1205
     12 C           4.4214    1.3567    0.0000 C.3     1  UNL1        0.0946
     13 C           3.5114   -0.1502    0.0000 C.3     1  UNL1        0.1207
     14 C           6.1534    1.3567    0.0000 C.3     1  UNL1       -0.0053
     15 C           5.2874    1.8567    0.0000 C.3     1  UNL1       -0.0164
     16 C           4.4054   -1.7126    0.0000 C.3     1  UNL1        0.1155
     17 C           3.5033   -1.1918    0.0000 C.3     1  UNL1        0.1251
     18 C           7.0474   -0.1780    0.0000 C.3     1  UNL1       -0.0400
     19 C           5.5036   -0.7693    0.0000 C.3     1  UNL1       -0.0562
     20 C           7.0474    1.8913    0.0000 C.2     1  UNL1       -0.0189
     21 C           3.0000   -2.0559    0.0000 C.3     1  UNL1       -0.0127
     22 C           7.9534    0.3358    0.0000 C.3     1  UNL1       -0.0202
     23 C           7.9534    1.3775    0.0000 C.2     1  UNL1        0.0393
     24 C           7.2574    2.9052    0.0000 C.3     1  UNL1        0.1149
     25 C           2.0000   -2.0520    0.0000 C.3     1  UNL1       -0.0599
     26 C           3.4966   -2.9238    0.0000 C.3     1  UNL1       -0.0599
     27 C           8.7157    2.0782    0.0000 C.2     1  UNL1        0.3355
     28 H           5.7368   -1.9161    0.0000 H       1  UNL1        0.0653
     29 H           3.9964    2.0928    0.0000 H       1  UNL1        0.0627
     30 H           2.9715   -0.4550    0.0000 H       1  UNL1        0.0654
     31 H           6.1469    2.2066    0.0000 H       1  UNL1        0.0354
     32 H           5.6859    2.3316    0.0000 H       1  UNL1        0.0297
     33 H           4.8889    2.3316    0.0000 H       1  UNL1        0.0297
     34 H           3.8691   -2.0236    0.0000 H       1  UNL1        0.0650
     35 H           6.6428   -0.6478    0.0000 H       1  UNL1        0.0275
     36 H           7.4410   -0.6570    0.0000 H       1  UNL1        0.0275
     37 H           4.9666   -0.4594    0.0000 H       1  UNL1        0.0236
     38 H           5.1937   -1.3063    0.0000 H       1  UNL1        0.0236
     39 H           6.0406   -1.0792    0.0000 H       1  UNL1        0.0236
     40 H           3.6200   -2.0583    0.0000 H       1  UNL1        0.0325
     41 H           8.1625   -0.2478    0.0000 H       1  UNL1        0.0316
     42 H           8.5643    0.4419    0.0000 H       1  UNL1        0.0316
     43 H           2.6583    0.9798    0.0000 H       1  UNL1        0.2100
     44 H           4.9474   -3.0205    0.0000 H       1  UNL1        0.2100
     45 H           2.1954   -0.6498    0.0000 H       1  UNL1        0.2104
     46 H           7.2536    3.5252    0.0000 H       1  UNL1        0.0746
     47 H           6.6405    2.9665    0.0000 H       1  UNL1        0.0746
     48 H           2.9585   -3.2318    0.0000 H       1  UNL1        0.0233
     49 H           3.8046   -3.4620    0.0000 H       1  UNL1        0.0233
     50 H           4.0348   -2.6159    0.0000 H       1  UNL1        0.0233
     51 H           2.0024   -1.4320    0.0000 H       1  UNL1        0.0233
     52 H           1.3800   -2.0496    0.0000 H       1  UNL1        0.0233
     53 H           1.9976   -2.6720    0.0000 H       1  UNL1        0.0233
@<TRIPOS>BOND
     1     8     1    1
     2     1    11    1
     3     9     2    1
     4     2    12    1
     5    13     3    1
     6     3    43    1
     7    16     4    1
     8     4    44    1
     9    17     5    1
    10     5    45    1
    11     6    24    1
    12     6    27    1
    13     7    27    2
    14     8     9    1
    15     8    10    1
    16     8    11    1
    17     9    12    1
    18     9    13    1
    19    10    14    1
    20    10    18    1
    21    10    19    1
    22    11    16    1
    23    11    28    1
    24    12    15    1
    25    12    29    1
    26    13    17    1
    27    13    30    1
    28    14    15    1
    29    14    20    1
    30    14    31    1
    31    15    32    1
    32    15    33    1
    33    16    17    1
    34    16    34    1
    35    17    21    1
    36    18    22    1
    37    18    35    1
    38    18    36    1
    39    19    37    1
    40    19    38    1
    41    19    39    1
    42    20    23    2
    43    20    24    1
    44    21    25    1
    45    21    26    1
    46    21    40    1
    47    22    23    1
    48    22    41    1
    49    22    42    1
    50    23    27    1
    51    24    46    1
    52    24    47    1
    53    25    51    1
    54    25    52    1
    55    25    53    1
    56    26    48    1
    57    26    49    1
    58    26    50    1
