@<TRIPOS>MOLECULE
IMPHY016098
 45 44 0 0 0
SMALL
GASTEIGER

@<TRIPOS>ATOM
      1 O           2.0000   -0.2500    0.0000 O.2     1  UNL1       -0.3010
      2 C           5.4641   -0.2500    0.0000 C.3     1  UNL1       -0.0524
      3 C           6.3301    0.2500    0.0000 C.3     1  UNL1       -0.0496
      4 C           4.5981    0.2500    0.0000 C.3     1  UNL1       -0.0466
      5 C          13.2583    0.2500    0.0000 C.3     1  UNL1       -0.0496
      6 C          14.1244   -0.2500    0.0000 C.3     1  UNL1       -0.0530
      7 C           7.1962   -0.2500    0.0000 C.3     1  UNL1       -0.0348
      8 C          12.3923   -0.2500    0.0000 C.3     1  UNL1       -0.0348
      9 C          14.9904    0.2500    0.0000 C.3     1  UNL1       -0.0559
     10 C           3.7320   -0.2500    0.0000 C.3     1  UNL1        0.0028
     11 C           8.0622    0.2500    0.0000 C.2     1  UNL1       -0.0876
     12 C          11.5263    0.2500    0.0000 C.2     1  UNL1       -0.0876
     13 C           9.7942    0.2500    0.0000 C.3     1  UNL1       -0.0165
     14 C           8.9282   -0.2500    0.0000 C.2     1  UNL1       -0.0842
     15 C          15.8564   -0.2500    0.0000 C.3     1  UNL1       -0.0653
     16 C          10.6603   -0.2500    0.0000 C.2     1  UNL1       -0.0842
     17 C           2.8660    0.2500    0.0000 C.2     1  UNL1        0.1203
     18 H           5.0656   -0.7249    0.0000 H       1  UNL1        0.0265
     19 H           5.8626   -0.7249    0.0000 H       1  UNL1        0.0265
     20 H           6.7287    0.7249    0.0000 H       1  UNL1        0.0268
     21 H           5.9316    0.7249    0.0000 H       1  UNL1        0.0268
     22 H           4.9966    0.7249    0.0000 H       1  UNL1        0.0269
     23 H           4.1996    0.7249    0.0000 H       1  UNL1        0.0269
     24 H          13.6569    0.7249    0.0000 H       1  UNL1        0.0268
     25 H          12.8598    0.7249    0.0000 H       1  UNL1        0.0268
     26 H          13.7258   -0.7249    0.0000 H       1  UNL1        0.0265
     27 H          14.5229   -0.7249    0.0000 H       1  UNL1        0.0265
     28 H           6.7976   -0.7249    0.0000 H       1  UNL1        0.0307
     29 H           7.5947   -0.7249    0.0000 H       1  UNL1        0.0307
     30 H          11.9938   -0.7249    0.0000 H       1  UNL1        0.0307
     31 H          12.7908   -0.7249    0.0000 H       1  UNL1        0.0307
     32 H          15.3889    0.7249    0.0000 H       1  UNL1        0.0263
     33 H          14.5919    0.7249    0.0000 H       1  UNL1        0.0263
     34 H           3.3335   -0.7249    0.0000 H       1  UNL1        0.0339
     35 H           4.1306   -0.7249    0.0000 H       1  UNL1        0.0339
     36 H           8.0622    0.8700    0.0000 H       1  UNL1        0.0569
     37 H          11.5263    0.8700    0.0000 H       1  UNL1        0.0569
     38 H          10.1928    0.7249    0.0000 H       1  UNL1        0.0350
     39 H           9.3957    0.7249    0.0000 H       1  UNL1        0.0350
     40 H           8.9282   -0.8700    0.0000 H       1  UNL1        0.0572
     41 H          15.5464   -0.7869    0.0000 H       1  UNL1        0.0230
     42 H          16.3933   -0.5600    0.0000 H       1  UNL1        0.0230
     43 H          16.1664    0.2869    0.0000 H       1  UNL1        0.0230
     44 H          10.6603   -0.8700    0.0000 H       1  UNL1        0.0572
     45 H           2.8660    0.8700    0.0000 H       1  UNL1        0.1026
@<TRIPOS>BOND
     1     1    17    2
     2     2     3    1
     3     2     4    1
     4     2    18    1
     5     2    19    1
     6     3     7    1
     7     3    20    1
     8     3    21    1
     9     4    10    1
    10     4    22    1
    11     4    23    1
    12     5     6    1
    13     5     8    1
    14     5    24    1
    15     5    25    1
    16     6     9    1
    17     6    26    1
    18     6    27    1
    19     7    11    1
    20     7    28    1
    21     7    29    1
    22     8    12    1
    23     8    30    1
    24     8    31    1
    25     9    15    1
    26     9    32    1
    27     9    33    1
    28    10    17    1
    29    10    34    1
    30    10    35    1
    31    11    14    2
    32    11    36    1
    33    12    16    2
    34    12    37    1
    35    13    14    1
    36    13    16    1
    37    13    38    1
    38    13    39    1
    39    14    40    1
    40    15    41    1
    41    15    42    1
    42    15    43    1
    43    16    44    1
    44    17    45    1
