@<TRIPOS>MOLECULE
IMPHY004727
 49 51 0 0 0
SMALL
GASTEIGER

@<TRIPOS>ATOM
      1 O           6.0290   -0.8017    0.0000 O.3     1  UNL1       -0.4897
      2 O           6.0174    2.2675    0.0000 O.2     1  UNL1       -0.2910
      3 O           4.2690    2.2329    0.0000 O.3     1  UNL1       -0.5058
      4 O           2.5369   -0.7671    0.0000 O.3     1  UNL1       -0.5062
      5 O           8.6709   -0.2396    0.0000 O.3     1  UNL1       -0.5064
      6 O          10.3914    2.7671    0.0000 O.3     1  UNL1       -0.4950
      7 C           6.9350    0.7537    0.0000 C.3     1  UNL1        0.0847
      8 C           6.9350   -0.2879    0.0000 C.3     1  UNL1        0.1036
      9 C           5.1350    0.7329    0.0000 C.ar    1  UNL1        0.1015
     10 C           6.0290    1.2676    0.0000 C.2     1  UNL1        0.1809
     11 C           5.1350   -0.2671    0.0000 C.ar    1  UNL1        0.1415
     12 C           7.7991    1.2571    0.0000 C.ar    1  UNL1        0.0081
     13 C           4.2690   -0.7671    0.0000 C.ar    1  UNL1        0.0403
     14 C           4.2690    1.2329    0.0000 C.ar    1  UNL1        0.1343
     15 C           4.2690   -1.7671    0.0000 C.3     1  UNL1       -0.0023
     16 C           3.4030   -0.2671    0.0000 C.ar    1  UNL1        0.1273
     17 C           8.6671    0.7604    0.0000 C.ar    1  UNL1        0.1243
     18 C           7.7953    2.2571    0.0000 C.ar    1  UNL1       -0.0509
     19 C           3.4030    0.7329    0.0000 C.ar    1  UNL1        0.0225
     20 C           9.5312    1.2638    0.0000 C.ar    1  UNL1        0.0218
     21 C           3.4030   -2.2671    0.0000 C.2     1  UNL1       -0.0807
     22 C           8.6594    2.7604    0.0000 C.ar    1  UNL1       -0.0194
     23 C           9.5273    2.2638    0.0000 C.ar    1  UNL1        0.1236
     24 C           3.4030   -3.2671    0.0000 C.2     1  UNL1       -0.0793
     25 C           2.5369   -3.7671    0.0000 C.3     1  UNL1       -0.0440
     26 C           4.2690   -3.7671    0.0000 C.3     1  UNL1       -0.0440
     27 C          10.3875    3.7671    0.0000 C.3     1  UNL1        0.0788
     28 H           7.4726    0.4448    0.0000 H       1  UNL1        0.0464
     29 H           7.1441   -0.8716    0.0000 H       1  UNL1        0.0707
     30 H           7.5459   -0.1818    0.0000 H       1  UNL1        0.0707
     31 H           4.4810   -2.3497    0.0000 H       1  UNL1        0.0358
     32 H           4.8796   -1.6594    0.0000 H       1  UNL1        0.0358
     33 H           7.2571    2.5650    0.0000 H       1  UNL1        0.0623
     34 H           2.8660    1.0429    0.0000 H       1  UNL1        0.0691
     35 H          10.0693    0.9558    0.0000 H       1  UNL1        0.0691
     36 H           2.8660   -1.9571    0.0000 H       1  UNL1        0.0575
     37 H           8.6570    3.3804    0.0000 H       1  UNL1        0.0654
     38 H           3.7320    2.5429    0.0000 H       1  UNL1        0.2922
     39 H           2.0000   -0.4571    0.0000 H       1  UNL1        0.2921
     40 H           9.2090   -0.5475    0.0000 H       1  UNL1        0.2921
     41 H           2.2269   -3.2301    0.0000 H       1  UNL1        0.0274
     42 H           2.0000   -4.0771    0.0000 H       1  UNL1        0.0274
     43 H           2.8469   -4.3040    0.0000 H       1  UNL1        0.0274
     44 H           3.9590   -4.3040    0.0000 H       1  UNL1        0.0274
     45 H           4.8059   -4.0771    0.0000 H       1  UNL1        0.0274
     46 H           4.5790   -3.2301    0.0000 H       1  UNL1        0.0274
     47 H          11.0075    3.7695    0.0000 H       1  UNL1        0.0660
     48 H          10.3851    4.3871    0.0000 H       1  UNL1        0.0660
     49 H           9.7675    3.7647    0.0000 H       1  UNL1        0.0660
@<TRIPOS>BOND
     1     1     8    1
     2     1    11    1
     3     2    10    2
     4     3    14    1
     5     3    38    1
     6     4    16    1
     7     4    39    1
     8     5    17    1
     9     5    40    1
    10     6    23    1
    11     6    27    1
    12     7     8    1
    13     7    10    1
    14     7    12    1
    15     7    28    1
    16     8    29    1
    17     8    30    1
    18     9    10    1
    19     9    11   ar
    20     9    14   ar
    21    11    13   ar
    22    12    17   ar
    23    12    18   ar
    24    13    15    1
    25    13    16   ar
    26    14    19   ar
    27    15    21    1
    28    15    31    1
    29    15    32    1
    30    16    19   ar
    31    17    20   ar
    32    18    22   ar
    33    18    33    1
    34    19    34    1
    35    20    23   ar
    36    20    35    1
    37    21    24    2
    38    21    36    1
    39    22    23   ar
    40    22    37    1
    41    24    25    1
    42    24    26    1
    43    25    41    1
    44    25    42    1
    45    25    43    1
    46    26    44    1
    47    26    45    1
    48    26    46    1
    49    27    47    1
    50    27    48    1
    51    27    49    1
