@<TRIPOS>MOLECULE
IMPHY003101
 53 56 0 0 0
SMALL
GASTEIGER

@<TRIPOS>ATOM
      1 O           7.5587   -2.5301    0.0000 O.3     1  UNL1       -0.4646
      2 O           9.2080   -2.0013    0.0000 O.2     1  UNL1       -0.5021
      3 O           6.2760   -1.3662    0.0000 O.2     1  UNL1       -0.2452
      4 N           6.9654    2.0780    0.0000 N.3     1  UNL1       -0.2931
      5 N           4.5124    0.9605    0.0000 N.ar    1  UNL1       -0.3564
      6 C           6.2962    1.3348    0.0000 C.3     1  UNL1        0.0515
      7 C           7.6200    0.1149    0.0000 C.3     1  UNL1        0.0030
      8 C           6.6028    0.3393    0.0000 C.3     1  UNL1       -0.0241
      9 C           8.3170    0.8890    0.0000 C.3     1  UNL1       -0.0032
     10 C           7.9875    1.8771    0.0000 C.3     1  UNL1        0.0063
     11 C           5.3181    1.5427    0.0000 C.ar    1  UNL1        0.0376
     12 C           6.6564    3.0290    0.0000 C.3     1  UNL1        0.0036
     13 C           5.0091    2.4938    0.0000 C.ar    1  UNL1       -0.0164
     14 C           5.6782    3.2369    0.0000 C.3     1  UNL1       -0.0125
     15 C           7.9253   -0.8373    0.0000 C.2     1  UNL1        0.0743
     16 C           4.0150    2.4912    0.0000 C.ar    1  UNL1        0.0032
     17 C           9.2959    0.6848    0.0000 C.2     1  UNL1       -0.0862
     18 C           3.7086    1.5455    0.0000 C.ar    1  UNL1        0.0470
     19 C           3.3334    3.2707    0.0000 C.ar    1  UNL1       -0.0523
     20 C           7.2533   -1.5779    0.0000 C.2     1  UNL1        0.3381
     21 C           8.9027   -1.0490    0.0000 C.2     1  UNL1        0.0943
     22 C           2.6994    1.3138    0.0000 C.ar    1  UNL1       -0.0378
     23 C           9.9622    1.4306    0.0000 C.2     1  UNL1       -0.1023
     24 C           2.3191    3.0624    0.0000 C.ar    1  UNL1       -0.0611
     25 C           2.0000    2.0773    0.0000 C.ar    1  UNL1       -0.0598
     26 C           6.8867   -3.2707    0.0000 C.3     1  UNL1        0.0820
     27 C          10.1854   -2.2129    0.0000 C.3     1  UNL1        0.0780
     28 H           5.7226    0.7075    0.0000 H       1  UNL1        0.0527
     29 H           8.2262   -0.0152    0.0000 H       1  UNL1        0.0359
     30 H           5.9878    0.2609    0.0000 H       1  UNL1        0.0290
     31 H           6.5748   -0.2800    0.0000 H       1  UNL1        0.0290
     32 H           8.5097    0.2997    0.0000 H       1  UNL1        0.0361
     33 H           8.6005    1.9697    0.0000 H       1  UNL1        0.0433
     34 H           8.0011    2.4970    0.0000 H       1  UNL1        0.0433
     35 H           7.2703    3.1153    0.0000 H       1  UNL1        0.0430
     36 H           6.6780    3.6486    0.0000 H       1  UNL1        0.0430
     37 H           5.9105    3.8118    0.0000 H       1  UNL1        0.0326
     38 H           5.1524    3.5655    0.0000 H       1  UNL1        0.0326
     39 H           4.5113    0.3405    0.0000 H       1  UNL1        0.1656
     40 H           9.4898    0.0959    0.0000 H       1  UNL1        0.0570
     41 H           3.5313    3.8583    0.0000 H       1  UNL1        0.0624
     42 H           9.3193   -0.5899    0.0000 H       1  UNL1        0.1028
     43 H           2.5152    0.7218    0.0000 H       1  UNL1        0.0638
     44 H          10.5691    1.3040    0.0000 H       1  UNL1        0.0532
     45 H           9.7683    2.0195    0.0000 H       1  UNL1        0.0532
     46 H           1.9056    3.5243    0.0000 H       1  UNL1        0.0618
     47 H           1.3942    1.9455    0.0000 H       1  UNL1        0.0618
     48 H           6.4276   -2.8541    0.0000 H       1  UNL1        0.0661
     49 H           6.4701   -3.7298    0.0000 H       1  UNL1        0.0661
     50 H           7.3458   -3.6873    0.0000 H       1  UNL1        0.0661
     51 H          10.0541   -2.8189    0.0000 H       1  UNL1        0.0660
     52 H          10.7913   -2.3442    0.0000 H       1  UNL1        0.0660
     53 H          10.3166   -1.6070    0.0000 H       1  UNL1        0.0660
@<TRIPOS>BOND
     1     1    20    1
     2     1    26    1
     3     2    21    1
     4     2    27    1
     5     3    20    2
     6     4     6    1
     7     4    10    1
     8     4    12    1
     9     5    11   ar
    10     5    18   ar
    11     5    39    1
    12     6     8    1
    13     6    11    1
    14     6    28    1
    15     7     8    1
    16     7     9    1
    17     7    15    1
    18     7    29    1
    19     8    30    1
    20     8    31    1
    21     9    10    1
    22     9    17    1
    23     9    32    1
    24    10    33    1
    25    10    34    1
    26    11    13   ar
    27    12    14    1
    28    12    35    1
    29    12    36    1
    30    13    14    1
    31    13    16   ar
    32    14    37    1
    33    14    38    1
    34    15    20    1
    35    15    21    2
    36    16    18   ar
    37    16    19   ar
    38    17    23    2
    39    17    40    1
    40    18    22   ar
    41    19    24   ar
    42    19    41    1
    43    21    42    1
    44    22    25   ar
    45    22    43    1
    46    23    44    1
    47    23    45    1
    48    24    25   ar
    49    24    46    1
    50    25    47    1
    51    26    48    1
    52    26    49    1
    53    26    50    1
    54    27    51    1
    55    27    52    1
    56    27    53    1
