@<TRIPOS>MOLECULE
IMPHY002864
 55 58 0 0 0
SMALL
GASTEIGER

@<TRIPOS>ATOM
      1 O           4.2755   -0.2062    0.0000 O.3     1  UNL1       -0.3369
      2 O           6.0075   -0.1995    0.0000 O.3     1  UNL1       -0.4606
      3 O           4.2639    2.7938    0.0000 O.3     1  UNL1       -0.3864
      4 O           5.9998    1.8004    0.0000 O.3     1  UNL1       -0.3829
      5 O           2.5357    1.7871    0.0000 O.3     1  UNL1       -0.3869
      6 O           9.5376   -0.1754    0.0000 O.2     1  UNL1       -0.4544
      7 O           7.7892    2.8592    0.0000 O.3     1  UNL1       -0.5058
      8 O           9.5376    2.8246    0.0000 O.2     1  UNL1       -0.2869
      9 O          13.8678    0.3246    0.0000 O.3     1  UNL1       -0.4913
     10 O          12.1357   -2.6754    0.0000 O.3     1  UNL1       -0.4913
     11 O          13.8678   -1.6754    0.0000 O.3     1  UNL1       -0.5009
     12 C           4.2678    1.7938    0.0000 C.3     1  UNL1        0.1148
     13 C           5.1357    1.2971    0.0000 C.3     1  UNL1        0.1454
     14 C           3.4037    1.2904    0.0000 C.3     1  UNL1        0.1070
     15 C           5.1396    0.2971    0.0000 C.3     1  UNL1        0.2305
     16 C           3.4075    0.2904    0.0000 C.3     1  UNL1        0.0802
     17 C           6.8716    0.3038    0.0000 C.ar    1  UNL1        0.1310
     18 C           7.7777   -0.2101    0.0000 C.ar    1  UNL1        0.0235
     19 C           6.8716    1.3454    0.0000 C.ar    1  UNL1        0.0226
     20 C           8.6716    0.3246    0.0000 C.ar    1  UNL1        0.1462
     21 C           8.6716    1.3246    0.0000 C.ar    1  UNL1        0.1055
     22 C           7.7777    1.8593    0.0000 C.ar    1  UNL1        0.1347
     23 C          10.4037    0.3246    0.0000 C.ar    1  UNL1        0.1395
     24 C           9.5376    1.8246    0.0000 C.ar    1  UNL1        0.1966
     25 C          10.4037    1.3246    0.0000 C.ar    1  UNL1        0.0288
     26 C          11.2697   -0.1754    0.0000 C.ar    1  UNL1        0.0245
     27 C          11.2697   -1.1754    0.0000 C.ar    1  UNL1       -0.0054
     28 C          12.1357    0.3246    0.0000 C.ar    1  UNL1       -0.0054
     29 C          13.0017   -0.1754    0.0000 C.ar    1  UNL1        0.1656
     30 C          12.1357   -1.6754    0.0000 C.ar    1  UNL1        0.1656
     31 C          13.0017   -1.1754    0.0000 C.ar    1  UNL1        0.2010
     32 C          13.8678    1.3246    0.0000 C.3     1  UNL1        0.0790
     33 C          11.2697   -3.1754    0.0000 C.3     1  UNL1        0.0790
     34 H           3.7296    2.1017    0.0000 H       1  UNL1        0.0648
     35 H           5.6738    0.9892    0.0000 H       1  UNL1        0.0683
     36 H           2.8680    0.9784    0.0000 H       1  UNL1        0.0643
     37 H           5.1420   -0.3229    0.0000 H       1  UNL1        0.1084
     38 H           2.7966    0.3957    0.0000 H       1  UNL1        0.0588
     39 H           3.1977   -0.2930    0.0000 H       1  UNL1        0.0588
     40 H           3.7258    3.1017    0.0000 H       1  UNL1        0.2100
     41 H           5.9974    2.4204    0.0000 H       1  UNL1        0.2102
     42 H           2.0000    1.4750    0.0000 H       1  UNL1        0.2100
     43 H           7.7848   -0.8300    0.0000 H       1  UNL1        0.0691
     44 H           6.3359    1.6575    0.0000 H       1  UNL1        0.0691
     45 H          10.9406    1.6346    0.0000 H       1  UNL1        0.0693
     46 H          10.7328   -1.4854    0.0000 H       1  UNL1        0.0662
     47 H          12.1357    0.9446    0.0000 H       1  UNL1        0.0662
     48 H           7.2559    3.1754    0.0000 H       1  UNL1        0.2922
     49 H          14.4047   -1.3654    0.0000 H       1  UNL1        0.2924
     50 H          14.4878    1.3246    0.0000 H       1  UNL1        0.0660
     51 H          13.8678    1.9446    0.0000 H       1  UNL1        0.0660
     52 H          13.2478    1.3246    0.0000 H       1  UNL1        0.0660
     53 H          10.9597   -2.6385    0.0000 H       1  UNL1        0.0660
     54 H          10.7328   -3.4854    0.0000 H       1  UNL1        0.0660
     55 H          11.5797   -3.7123    0.0000 H       1  UNL1        0.0660
@<TRIPOS>BOND
     1     1    15    1
     2     1    16    1
     3     2    15    1
     4     2    17    1
     5     3    12    1
     6     3    40    1
     7     4    13    1
     8     4    41    1
     9     5    14    1
    10     5    42    1
    11     6    20   ar
    12     6    23   ar
    13     7    22    1
    14     7    48    1
    15     8    24    2
    16     9    29    1
    17     9    32    1
    18    10    30    1
    19    10    33    1
    20    11    31    1
    21    11    49    1
    22    12    13    1
    23    12    14    1
    24    12    34    1
    25    13    15    1
    26    13    35    1
    27    14    16    1
    28    14    36    1
    29    15    37    1
    30    16    38    1
    31    16    39    1
    32    17    18   ar
    33    17    19   ar
    34    18    20   ar
    35    18    43    1
    36    19    22   ar
    37    19    44    1
    38    20    21   ar
    39    21    22   ar
    40    21    24   ar
    41    23    25   ar
    42    23    26    1
    43    24    25   ar
    44    25    45    1
    45    26    27   ar
    46    26    28   ar
    47    27    30   ar
    48    27    46    1
    49    28    29   ar
    50    28    47    1
    51    29    31   ar
    52    30    31   ar
    53    32    50    1
    54    32    51    1
    55    32    52    1
    56    33    53    1
    57    33    54    1
    58    33    55    1
