@<TRIPOS>MOLECULE
IMPHY007791
 59 63 0 0 0
SMALL
GASTEIGER

@<TRIPOS>ATOM
      1 O           5.1350   -3.4092    0.0000 O.3     1  UNL1       -0.3313
      2 O           6.8671   -3.4092    0.0000 O.3     1  UNL1       -0.4570
      3 O           5.1350   -6.4092    0.0000 O.3     1  UNL1       -0.3864
      4 O           3.4030   -5.4092    0.0000 O.3     1  UNL1       -0.3865
      5 O           6.8671   -5.4092    0.0000 O.3     1  UNL1       -0.3829
      6 O           2.5369   -3.9092    0.0000 O.3     1  UNL1       -0.3924
      7 O           5.1350   -2.4092    0.0000 O.3     1  UNL1       -0.4914
      8 O           8.6431   -0.4024    0.0000 O.2     1  UNL1       -0.4195
      9 O           7.7452    2.1600    0.0000 O.3     1  UNL1       -0.4487
     10 O           9.5191    1.1359    0.0000 O.2     1  UNL1       -0.2410
     11 O           6.0175    5.1949    0.0000 O.2     1  UNL1       -0.4220
     12 O           5.1174    6.7192    0.0000 O.2     1  UNL1       -0.2452
     13 C           5.1350   -5.4092    0.0000 C.3     1  UNL1        0.1152
     14 C           4.2690   -4.9092    0.0000 C.3     1  UNL1        0.1120
     15 C           6.0010   -4.9092    0.0000 C.3     1  UNL1        0.1454
     16 C           4.2690   -3.9092    0.0000 C.3     1  UNL1        0.1140
     17 C           6.0010   -3.9092    0.0000 C.3     1  UNL1        0.2310
     18 C           3.4030   -3.4092    0.0000 C.3     1  UNL1        0.0731
     19 C           6.8671   -2.4092    0.0000 C.ar    1  UNL1        0.1689
     20 C           6.0010   -1.9092    0.0000 C.ar    1  UNL1        0.1624
     21 C           7.7331   -1.9092    0.0000 C.ar    1  UNL1        0.0269
     22 C           7.7331   -0.9092    0.0000 C.ar    1  UNL1        0.1430
     23 C           6.8671   -0.4092    0.0000 C.ar    1  UNL1        0.0248
     24 C           6.0010   -0.9092    0.0000 C.ar    1  UNL1       -0.0055
     25 C           6.8510    0.6323    0.0000 C.ar    1  UNL1       -0.0014
     26 C           7.7490    1.1600    0.0000 C.ar    1  UNL1        0.2130
     27 C           8.6511    0.6392    0.0000 C.ar    1  UNL1        0.3801
     28 C           4.2690   -1.9092    0.0000 C.3     1  UNL1        0.0790
     29 C           6.8772    2.6567    0.0000 C.ar    1  UNL1        0.1323
     30 C           6.8734    3.6567    0.0000 C.ar    1  UNL1        0.0237
     31 C           5.1414    3.6500    0.0000 C.ar    1  UNL1        0.0178
     32 C           6.0054    4.1534    0.0000 C.ar    1  UNL1        0.1425
     33 C           6.0132    2.1534    0.0000 C.ar    1  UNL1       -0.0185
     34 C           5.1452    2.6500    0.0000 C.ar    1  UNL1       -0.0476
     35 C           4.2294    4.1534    0.0000 C.ar    1  UNL1       -0.0443
     36 C           4.2174    5.1949    0.0000 C.ar    1  UNL1        0.0236
     37 C           5.1174    5.7192    0.0000 C.ar    1  UNL1        0.3372
     38 H           5.6720   -5.7192    0.0000 H       1  UNL1        0.0648
     39 H           4.2690   -5.5292    0.0000 H       1  UNL1        0.0647
     40 H           6.5380   -4.5992    0.0000 H       1  UNL1        0.0683
     41 H           4.2690   -3.2892    0.0000 H       1  UNL1        0.0647
     42 H           6.0010   -3.2892    0.0000 H       1  UNL1        0.1084
     43 H           3.8015   -2.9343    0.0000 H       1  UNL1        0.0584
     44 H           3.0044   -2.9343    0.0000 H       1  UNL1        0.0584
     45 H           4.5981   -6.7192    0.0000 H       1  UNL1        0.2100
     46 H           3.4030   -6.0292    0.0000 H       1  UNL1        0.2100
     47 H           6.8671   -6.0292    0.0000 H       1  UNL1        0.2102
     48 H           2.0000   -3.5992    0.0000 H       1  UNL1        0.2095
     49 H           8.2700   -2.2192    0.0000 H       1  UNL1        0.0692
     50 H           5.4641   -0.5992    0.0000 H       1  UNL1        0.0662
     51 H           6.3105    0.9361    0.0000 H       1  UNL1        0.0664
     52 H           4.5790   -1.3723    0.0000 H       1  UNL1        0.0660
     53 H           3.7320   -1.5992    0.0000 H       1  UNL1        0.0660
     54 H           3.9590   -2.4461    0.0000 H       1  UNL1        0.0660
     55 H           7.4091    3.9688    0.0000 H       1  UNL1        0.0691
     56 H           6.0155    1.5334    0.0000 H       1  UNL1        0.0654
     57 H           4.6095    2.3380    0.0000 H       1  UNL1        0.0626
     58 H           3.6973    3.8351    0.0000 H       1  UNL1        0.0627
     59 H           3.6780    5.5008    0.0000 H       1  UNL1        0.0689
@<TRIPOS>BOND
     1     1    16    1
     2     1    17    1
     3    17     2    1
     4     2    19    1
     5    13     3    1
     6     3    45    1
     7    14     4    1
     8     4    46    1
     9    15     5    1
    10     5    47    1
    11     6    18    1
    12     6    48    1
    13     7    20    1
    14     7    28    1
    15     8    22   ar
    16     8    27   ar
    17     9    26    1
    18     9    29    1
    19    10    27    2
    20    11    32   ar
    21    11    37   ar
    22    12    37    2
    23    13    14    1
    24    13    15    1
    25    13    38    1
    26    14    16    1
    27    14    39    1
    28    15    17    1
    29    15    40    1
    30    16    18    1
    31    16    41    1
    32    17    42    1
    33    18    43    1
    34    18    44    1
    35    19    20   ar
    36    19    21   ar
    37    20    24   ar
    38    21    22   ar
    39    21    49    1
    40    22    23   ar
    41    23    24   ar
    42    23    25   ar
    43    24    50    1
    44    25    26   ar
    45    25    51    1
    46    26    27   ar
    47    28    52    1
    48    28    53    1
    49    28    54    1
    50    29    30   ar
    51    29    33   ar
    52    30    32   ar
    53    30    55    1
    54    31    32   ar
    55    31    34   ar
    56    31    35   ar
    57    33    34   ar
    58    33    56    1
    59    34    57    1
    60    35    36   ar
    61    35    58    1
    62    36    37   ar
    63    36    59    1
