@<TRIPOS>MOLECULE
IMPHY016980
 19 19 0 0 0
SMALL
GASTEIGER

@<TRIPOS>ATOM
      1 O           3.7320    1.0000    0.0000 O.3     1  UNL1       -0.2920
      2 O           3.7320    2.0000    0.0000 O.3     1  UNL1       -0.1863
      3 O           2.0000    1.0000    0.0000 O.2     1  UNL1       -0.2418
      4 C           2.8660   -0.5000    0.0000 C.ar    1  UNL1        0.0620
      5 C           2.0000   -1.0000    0.0000 C.ar    1  UNL1       -0.0477
      6 C           3.7320   -1.0000    0.0000 C.ar    1  UNL1       -0.0477
      7 C           2.0000   -2.0000    0.0000 C.ar    1  UNL1       -0.0610
      8 C           3.7320   -2.0000    0.0000 C.ar    1  UNL1       -0.0610
      9 C           2.8660   -2.5000    0.0000 C.ar    1  UNL1       -0.0617
     10 C           2.8660    0.5000    0.0000 C.2     1  UNL1        0.3735
     11 C           4.5981    2.5000    0.0000 C.3     1  UNL1        0.0835
     12 H           1.4631   -0.6900    0.0000 H       1  UNL1        0.0626
     13 H           4.2690   -0.6900    0.0000 H       1  UNL1        0.0626
     14 H           1.4631   -2.3100    0.0000 H       1  UNL1        0.0618
     15 H           4.2690   -2.3100    0.0000 H       1  UNL1        0.0618
     16 H           2.8660   -3.1200    0.0000 H       1  UNL1        0.0618
     17 H           4.9081    1.9631    0.0000 H       1  UNL1        0.0565
     18 H           5.1350    2.8100    0.0000 H       1  UNL1        0.0565
     19 H           4.2881    3.0369    0.0000 H       1  UNL1        0.0565
@<TRIPOS>BOND
     1     1     2    1
     2     1    10    1
     3     2    11    1
     4     3    10    2
     5     4     5   ar
     6     4     6   ar
     7     4    10    1
     8     5     7   ar
     9     5    12    1
    10     6     8   ar
    11     6    13    1
    12     7     9   ar
    13     7    14    1
    14     8     9   ar
    15     8    15    1
    16     9    16    1
    17    11    17    1
    18    11    18    1
    19    11    19    1
