@<TRIPOS>MOLECULE
IMPHY009056
 49 53 0 0 0
SMALL
GASTEIGER

@<TRIPOS>ATOM
      1 O           8.0819   -1.2160    0.0000 O.3     1  UNL1       -0.4914
      2 O           3.6736    3.3774    0.0000 O.3     1  UNL1       -0.4951
      3 O           8.0819    0.8323    0.0000 O.3     1  UNL1       -0.5033
      4 N           3.6698   -2.7611    0.0000 N.3     1  UNL1       -0.2949
      5 C           2.7677   -2.2403    0.0000 C.3     1  UNL1        0.0148
      6 C           2.0000   -2.9352    0.0000 C.3     1  UNL1       -0.0359
      7 C           2.7757   -1.1987    0.0000 C.3     1  UNL1       -0.0111
      8 C           3.4519   -3.7734    0.0000 C.3     1  UNL1       -0.0004
      9 C           2.4220   -3.8807    0.0000 C.3     1  UNL1       -0.0388
     10 C           4.5678   -2.2334    0.0000 C.3     1  UNL1        0.0252
     11 C           3.6857   -0.6919    0.0000 C.ar    1  UNL1       -0.0332
     12 C           4.5518   -1.1918    0.0000 C.ar    1  UNL1       -0.0217
     13 C           3.6857    0.3081    0.0000 C.ar    1  UNL1       -0.0135
     14 C           5.4178   -0.6919    0.0000 C.ar    1  UNL1       -0.0089
     15 C           4.5518    0.8081    0.0000 C.ar    1  UNL1       -0.0063
     16 C           5.4178    0.3081    0.0000 C.ar    1  UNL1       -0.0061
     17 C           2.7757    0.8150    0.0000 C.ar    1  UNL1       -0.0503
     18 C           6.3117   -1.2265    0.0000 C.ar    1  UNL1       -0.0083
     19 C           4.5678    1.8496    0.0000 C.ar    1  UNL1       -0.0117
     20 C           6.3117    0.8428    0.0000 C.ar    1  UNL1       -0.0082
     21 C           7.2178   -0.7127    0.0000 C.ar    1  UNL1        0.1619
     22 C           2.7677    1.8566    0.0000 C.ar    1  UNL1       -0.0194
     23 C           3.6698    2.3774    0.0000 C.ar    1  UNL1        0.1207
     24 C           7.2178    0.3290    0.0000 C.ar    1  UNL1        0.1591
     25 C           8.0780   -2.2160    0.0000 C.3     1  UNL1        0.0790
     26 C           2.8095    3.8807    0.0000 C.3     1  UNL1        0.0788
     27 H           2.2020   -1.9867    0.0000 H       1  UNL1        0.0466
     28 H           1.6346   -2.4343    0.0000 H       1  UNL1        0.0281
     29 H           1.4635   -3.2459    0.0000 H       1  UNL1        0.0281
     30 H           2.5712   -0.6134    0.0000 H       1  UNL1        0.0329
     31 H           2.1641   -1.3001    0.0000 H       1  UNL1        0.0329
     32 H           3.4510   -4.3934    0.0000 H       1  UNL1        0.0427
     33 H           4.0683   -3.8394    0.0000 H       1  UNL1        0.0427
     34 H           1.8324   -4.0725    0.0000 H       1  UNL1        0.0278
     35 H           2.5507   -4.4872    0.0000 H       1  UNL1        0.0278
     36 H           4.7858   -2.8138    0.0000 H       1  UNL1        0.0476
     37 H           5.1770   -2.1179    0.0000 H       1  UNL1        0.0476
     38 H           2.2424    0.4988    0.0000 H       1  UNL1        0.0625
     39 H           6.3046   -1.8465    0.0000 H       1  UNL1        0.0661
     40 H           5.1083    2.1534    0.0000 H       1  UNL1        0.0660
     41 H           6.3046    1.4628    0.0000 H       1  UNL1        0.0661
     42 H           2.2296    2.1645    0.0000 H       1  UNL1        0.0654
     43 H           8.0795    1.4523    0.0000 H       1  UNL1        0.2923
     44 H           7.4580   -2.2136    0.0000 H       1  UNL1        0.0660
     45 H           8.0756   -2.8360    0.0000 H       1  UNL1        0.0660
     46 H           8.6980   -2.2184    0.0000 H       1  UNL1        0.0660
     47 H           3.1216    4.4165    0.0000 H       1  UNL1        0.0660
     48 H           2.2738    4.1928    0.0000 H       1  UNL1        0.0660
     49 H           2.4975    3.3450    0.0000 H       1  UNL1        0.0660
@<TRIPOS>BOND
     1     1    21    1
     2     1    25    1
     3     2    23    1
     4     2    26    1
     5     3    24    1
     6     3    43    1
     7     4     5    1
     8     4     8    1
     9     4    10    1
    10     5     6    1
    11     5     7    1
    12     5    27    1
    13     6     9    1
    14     6    28    1
    15     6    29    1
    16     7    11    1
    17     7    30    1
    18     7    31    1
    19     8     9    1
    20     8    32    1
    21     8    33    1
    22     9    34    1
    23     9    35    1
    24    10    12    1
    25    10    36    1
    26    10    37    1
    27    11    12   ar
    28    11    13   ar
    29    12    14   ar
    30    13    15   ar
    31    13    17   ar
    32    14    16   ar
    33    14    18   ar
    34    15    16   ar
    35    15    19   ar
    36    16    20   ar
    37    17    22   ar
    38    17    38    1
    39    18    21   ar
    40    18    39    1
    41    19    23   ar
    42    19    40    1
    43    20    24   ar
    44    20    41    1
    45    21    24   ar
    46    22    23   ar
    47    22    42    1
    48    25    44    1
    49    25    45    1
    50    25    46    1
    51    26    47    1
    52    26    48    1
    53    26    49    1
