@<TRIPOS>MOLECULE
IMPHY010851
 73 78 0 0 0
SMALL
GASTEIGER

@<TRIPOS>ATOM
      1 O           5.5954   -2.9096    0.0000 O.3     1  UNL1       -0.3448
      2 O           3.9300   -1.8284    0.0000 O.3     1  UNL1       -0.3480
      3 O          10.1833    3.5014    0.0000 O.3     1  UNL1       -0.3892
      4 O          12.0027    2.4696    0.0000 O.3     1  UNL1       -0.3889
      5 C           6.6628   -0.6748    0.0000 C.3     1  UNL1       -0.0233
      6 C           7.5288   -1.1748    0.0000 C.3     1  UNL1       -0.0295
      7 C           5.9258   -1.3418    0.0000 C.3     1  UNL1       -0.0015
      8 C           8.3948   -0.6748    0.0000 C.3     1  UNL1       -0.0306
      9 C           6.3309   -2.2496    0.0000 C.3     1  UNL1        0.0660
     10 C           8.3948    0.3252    0.0000 C.3     1  UNL1       -0.0285
     11 C           7.3196   -2.1466    0.0000 C.3     1  UNL1       -0.0226
     12 C           6.6628    0.3252    0.0000 C.3     1  UNL1       -0.0467
     13 C           4.9434   -1.4486    0.0000 C.3     1  UNL1        0.0160
     14 C           7.5288    0.8252    0.0000 C.3     1  UNL1       -0.0486
     15 C           9.2888    0.8599    0.0000 C.3     1  UNL1       -0.0055
     16 C           4.7396   -2.4155    0.0000 C.3     1  UNL1        0.1732
     17 C           5.7968   -0.1748    0.0000 C.3     1  UNL1       -0.0590
     18 C           9.2888   -1.2094    0.0000 C.3     1  UNL1       -0.0311
     19 C          10.1949    0.3460    0.0000 C.2     1  UNL1       -0.0647
     20 C           9.2637    1.9446    0.0000 C.3     1  UNL1       -0.0150
     21 C           4.2723   -0.7071    0.0000 C.3     1  UNL1       -0.0572
     22 C           4.6359   -3.4101    0.0000 C.3     1  UNL1        0.0020
     23 C          10.1949   -0.6956    0.0000 C.2     1  UNL1       -0.0839
     24 C           8.4189    1.3532    0.0000 C.3     1  UNL1       -0.0555
     25 C          11.1386    0.8813    0.0000 C.3     1  UNL1       -0.0026
     26 C          10.1949    2.5015    0.0000 C.3     1  UNL1        0.0821
     27 C          11.1386    1.9663    0.0000 C.3     1  UNL1        0.0847
     28 C           3.7227   -3.8176    0.0000 C.3     1  UNL1       -0.0435
     29 C           2.9132   -3.2306    0.0000 C.3     1  UNL1       -0.0201
     30 C           3.0169   -2.2359    0.0000 C.3     1  UNL1        0.0535
     31 C           2.0000   -3.6381    0.0000 C.3     1  UNL1       -0.0603
     32 H           8.2158   -1.6753    0.0000 H       1  UNL1        0.0310
     33 H           5.5777   -0.5664    0.0000 H       1  UNL1        0.0335
     34 H           8.3883   -1.5247    0.0000 H       1  UNL1        0.0310
     35 H           6.6756   -3.0266    0.0000 H       1  UNL1        0.0600
     36 H           9.1342   -0.0941    0.0000 H       1  UNL1        0.0312
     37 H           7.3187   -2.7666    0.0000 H       1  UNL1        0.0293
     38 H           7.9361   -2.2126    0.0000 H       1  UNL1        0.0293
     39 H           6.4507    0.9078    0.0000 H       1  UNL1        0.0271
     40 H           6.0522    0.2176    0.0000 H       1  UNL1        0.0271
     41 H           4.3448   -1.6103    0.0000 H       1  UNL1        0.0354
     42 H           7.9274    1.3002    0.0000 H       1  UNL1        0.0268
     43 H           7.1303    1.3002    0.0000 H       1  UNL1        0.0268
     44 H           6.1068    0.3622    0.0000 H       1  UNL1        0.0235
     45 H           5.2598    0.1352    0.0000 H       1  UNL1        0.0235
     46 H           5.4868   -0.7117    0.0000 H       1  UNL1        0.0235
     47 H           8.8842   -1.6792    0.0000 H       1  UNL1        0.0310
     48 H           9.6824   -1.6884    0.0000 H       1  UNL1        0.0310
     49 H           9.0412    2.5233    0.0000 H       1  UNL1        0.0299
     50 H           8.6555    1.8244    0.0000 H       1  UNL1        0.0299
     51 H           4.7320   -0.2911    0.0000 H       1  UNL1        0.0234
     52 H           3.8562   -0.2475    0.0000 H       1  UNL1        0.0234
     53 H           3.8126   -1.1232    0.0000 H       1  UNL1        0.0234
     54 H           4.7864   -4.0116    0.0000 H       1  UNL1        0.0317
     55 H           5.2544   -3.3663    0.0000 H       1  UNL1        0.0317
     56 H          10.7306   -1.0076    0.0000 H       1  UNL1        0.0572
     57 H           8.7248    1.8925    0.0000 H       1  UNL1        0.0238
     58 H           7.8796    1.6590    0.0000 H       1  UNL1        0.0238
     59 H           8.1131    0.8139    0.0000 H       1  UNL1        0.0238
     60 H          11.3477    0.2976    0.0000 H       1  UNL1        0.0336
     61 H          11.7495    0.9874    0.0000 H       1  UNL1        0.0336
     62 H           9.6538    2.8042    0.0000 H       1  UNL1        0.0619
     63 H          11.1351    2.5863    0.0000 H       1  UNL1        0.0622
     64 H           3.2771   -4.2487    0.0000 H       1  UNL1        0.0270
     65 H           4.0699   -4.3313    0.0000 H       1  UNL1        0.0270
     66 H           2.4113   -2.8666    0.0000 H       1  UNL1        0.0320
     67 H           2.8664   -1.6345    0.0000 H       1  UNL1        0.0563
     68 H           2.3984   -2.2797    0.0000 H       1  UNL1        0.0563
     69 H          10.7166    3.8176    0.0000 H       1  UNL1        0.2099
     70 H           1.7473   -3.0719    0.0000 H       1  UNL1        0.0233
     71 H           1.4338   -3.8908    0.0000 H       1  UNL1        0.0233
     72 H           2.2527   -4.2043    0.0000 H       1  UNL1        0.0233
     73 H          12.5409    2.1617    0.0000 H       1  UNL1        0.2099
@<TRIPOS>BOND
     1     1     9    1
     2    16     1    1
     3     2    16    1
     4     2    30    1
     5    26     3    1
     6     3    69    1
     7    27     4    1
     8     4    73    1
     9     5     6    1
    10     5     7    1
    11     5    12    1
    12     5    17    1
    13     6     8    1
    14     6    11    1
    15     6    32    1
    16     7     9    1
    17     7    13    1
    18     7    33    1
    19     8    10    1
    20     8    18    1
    21     8    34    1
    22     9    11    1
    23     9    35    1
    24    10    14    1
    25    10    15    1
    26    10    36    1
    27    11    37    1
    28    11    38    1
    29    12    14    1
    30    12    39    1
    31    12    40    1
    32    13    16    1
    33    13    21    1
    34    13    41    1
    35    14    42    1
    36    14    43    1
    37    15    19    1
    38    15    20    1
    39    15    24    1
    40    16    22    1
    41    17    44    1
    42    17    45    1
    43    17    46    1
    44    18    23    1
    45    18    47    1
    46    18    48    1
    47    19    23    2
    48    19    25    1
    49    20    26    1
    50    20    49    1
    51    20    50    1
    52    21    51    1
    53    21    52    1
    54    21    53    1
    55    22    28    1
    56    22    54    1
    57    22    55    1
    58    23    56    1
    59    24    57    1
    60    24    58    1
    61    24    59    1
    62    25    27    1
    63    25    60    1
    64    25    61    1
    65    26    27    1
    66    26    62    1
    67    27    63    1
    68    28    29    1
    69    28    64    1
    70    28    65    1
    71    29    30    1
    72    29    31    1
    73    29    66    1
    74    30    67    1
    75    30    68    1
    76    31    70    1
    77    31    71    1
    78    31    72    1
