@<TRIPOS>MOLECULE
IMPHY017926
 13 12 0 0 0
SMALL
GASTEIGER

@<TRIPOS>ATOM
      1 C           3.4360   -1.3185    0.0000 C.2     1  UNL1        0.3215
      2 O           3.4360    0.0000    0.0000 O.2     1  UNL1       -0.2497
      3 O           4.5946   -1.9977    0.0000 O.3     1  UNL1       -0.4213
      4 C           2.2773   -1.9977    0.0000 C.3     1  UNL1        0.1100
      5 C           1.1587   -1.3185    0.0000 C.3     1  UNL1        0.0111
      6 C           0.0000   -1.9977    0.0000 C.3     1  UNL1        0.0006
      7 C           1.1587    0.0000    0.0000 C.3     1  UNL1        0.0006
      8 C           4.5946   -3.3161    0.0000 C.2     1  UNL1        0.1782
      9 C           3.4360   -3.9953    0.0000 C.2     1  UNL1        0.0146
     10 C           3.4760   -5.3138    0.0000 C.3     1  UNL1        0.0293
     11 C           2.3173   -5.9930    0.0000 C.3     1  UNL1        0.0048
     12 C           2.3173   -7.3115    0.0000 C.3     1  UNL1        0.0003
     13 C           1.1587   -7.9907    0.0000 C.3     1  UNL1        0.0000
@<TRIPOS>BOND
     1     1     2    2
     2     1     3    1
     3     1     4    1
     4     3     8    1
     5     4     5    1
     6     5     6    1
     7     5     7    1
     8     8     9    2
     9     9    10    1
    10    10    11    1
    11    11    12    1
    12    12    13    1
