@<TRIPOS>MOLECULE
IMPHY017070
 28 29 0 0 0
SMALL
GASTEIGER

@<TRIPOS>ATOM
      1 O           5.0780    1.8184    0.0000 O.2     1  UNL1       -0.3546
      2 O           2.5369    0.2306    0.0000 O.3     1  UNL1       -0.5061
      3 N           4.7690    2.7694    0.0000 N.ar    1  UNL1       -0.0861
      4 C           6.0010   -1.7694    0.0000 C.3     1  UNL1       -0.0215
      5 C           5.1350   -1.2694    0.0000 C.ar    1  UNL1       -0.0439
      6 C           5.1350   -0.2694    0.0000 C.ar    1  UNL1       -0.0440
      7 C           6.0010   -2.7694    0.0000 C.3     1  UNL1       -0.0586
      8 C           6.8671   -1.2694    0.0000 C.3     1  UNL1       -0.0586
      9 C           4.2690    0.2306    0.0000 C.ar    1  UNL1        0.0616
     10 C           4.2690   -1.7694    0.0000 C.ar    1  UNL1       -0.0548
     11 C           3.4030   -0.2694    0.0000 C.ar    1  UNL1        0.1276
     12 C           3.4030   -1.2694    0.0000 C.ar    1  UNL1       -0.0192
     13 C           4.2690    1.2306    0.0000 C.ar    1  UNL1        0.1707
     14 C           3.4600    1.8184    0.0000 C.ar    1  UNL1        0.0052
     15 C           3.7690    2.7694    0.0000 C.ar    1  UNL1        0.0706
     16 H           6.5380   -2.0794    0.0000 H       1  UNL1        0.0343
     17 H           5.6720    0.0406    0.0000 H       1  UNL1        0.0629
     18 H           5.3810   -2.7694    0.0000 H       1  UNL1        0.0235
     19 H           6.0010   -3.3894    0.0000 H       1  UNL1        0.0235
     20 H           6.6210   -2.7694    0.0000 H       1  UNL1        0.0235
     21 H           7.1771   -1.8064    0.0000 H       1  UNL1        0.0235
     22 H           7.4040   -0.9594    0.0000 H       1  UNL1        0.0235
     23 H           6.5571   -0.7325    0.0000 H       1  UNL1        0.0235
     24 H           4.2690   -2.3894    0.0000 H       1  UNL1        0.0622
     25 H           2.8660   -1.5794    0.0000 H       1  UNL1        0.0654
     26 H           2.8703    1.6268    0.0000 H       1  UNL1        0.0672
     27 H           2.0000   -0.0794    0.0000 H       1  UNL1        0.2922
     28 H           3.4046    3.2710    0.0000 H       1  UNL1        0.0864
@<TRIPOS>BOND
     1     1     3   ar
     2     1    13   ar
     3     2    11    1
     4     2    27    1
     5     3    15   ar
     6     4     5    1
     7     4     7    1
     8     4     8    1
     9     4    16    1
    10     5     6   ar
    11     5    10   ar
    12     6     9   ar
    13     6    17    1
    14     7    18    1
    15     7    19    1
    16     7    20    1
    17     8    21    1
    18     8    22    1
    19     8    23    1
    20     9    11   ar
    21     9    13    1
    22    10    12   ar
    23    10    24    1
    24    11    12   ar
    25    12    25    1
    26    13    14   ar
    27    14    15   ar
    28    14    26    1
    29    15    28    1
