@<TRIPOS>MOLECULE
IMPHY017187
 20 19 0 0 0
SMALL
GASTEIGER

@<TRIPOS>ATOM
      1 S           4.5981   -0.2500    0.0000 S.3     1  UNL1       -0.0818
      2 S           3.7320    0.2500    0.0000 S.3     1  UNL1       -0.0245
      3 S           2.8660   -0.2500    0.0000 S.3     1  UNL1       -0.0852
      4 C           6.3301   -0.2500    0.0000 C.3     1  UNL1       -0.0434
      5 C           7.1962    0.2500    0.0000 C.3     1  UNL1       -0.0551
      6 C           5.4641    0.2500    0.0000 C.3     1  UNL1        0.0047
      7 C           8.0622   -0.2500    0.0000 C.3     1  UNL1       -0.0653
      8 C           2.0000    0.2500    0.0000 C.3     1  UNL1       -0.0071
      9 H           5.9316   -0.7249    0.0000 H       1  UNL1        0.0273
     10 H           6.7287   -0.7249    0.0000 H       1  UNL1        0.0273
     11 H           7.5947    0.7249    0.0000 H       1  UNL1        0.0263
     12 H           6.7976    0.7249    0.0000 H       1  UNL1        0.0263
     13 H           5.8626    0.7249    0.0000 H       1  UNL1        0.0385
     14 H           5.0656    0.7249    0.0000 H       1  UNL1        0.0385
     15 H           7.7522   -0.7869    0.0000 H       1  UNL1        0.0230
     16 H           8.5991   -0.5600    0.0000 H       1  UNL1        0.0230
     17 H           8.3722    0.2869    0.0000 H       1  UNL1        0.0230
     18 H           2.3100    0.7869    0.0000 H       1  UNL1        0.0349
     19 H           1.4631    0.5600    0.0000 H       1  UNL1        0.0349
     20 H           1.6900   -0.2869    0.0000 H       1  UNL1        0.0349
@<TRIPOS>BOND
     1     1     2    1
     2     1     6    1
     3     2     3    1
     4     3     8    1
     5     4     5    1
     6     4     6    1
     7     4     9    1
     8     4    10    1
     9     5     7    1
    10     5    11    1
    11     5    12    1
    12     6    13    1
    13     6    14    1
    14     7    15    1
    15     7    16    1
    16     7    17    1
    17     8    18    1
    18     8    19    1
    19     8    20    1
