@<TRIPOS>MOLECULE
IMPHY011036
 34 33 0 0 0
SMALL
GASTEIGER

@<TRIPOS>ATOM
      1 O           3.7320   -0.7500    0.0000 O.2     1  UNL1       -0.2974
      2 C           7.1962    0.2500    0.0000 C.3     1  UNL1       -0.0530
      3 C           6.3301    0.7500    0.0000 C.3     1  UNL1       -0.0527
      4 C           8.0622    0.7500    0.0000 C.3     1  UNL1       -0.0531
      5 C           5.4641    0.2500    0.0000 C.3     1  UNL1       -0.0464
      6 C           8.9282    0.2500    0.0000 C.3     1  UNL1       -0.0533
      7 C           4.5981    0.7500    0.0000 C.3     1  UNL1        0.0058
      8 C           9.7942    0.7500    0.0000 C.3     1  UNL1       -0.0559
      9 C           3.7320    0.2500    0.0000 C.2     1  UNL1        0.1331
     10 C          10.6603    0.2500    0.0000 C.3     1  UNL1       -0.0653
     11 C           2.8660    0.7500    0.0000 C.3     1  UNL1        0.0030
     12 C           2.0000    0.2500    0.0000 C.3     1  UNL1       -0.0586
     13 H           6.7976   -0.2249    0.0000 H       1  UNL1        0.0265
     14 H           7.5947   -0.2249    0.0000 H       1  UNL1        0.0265
     15 H           6.7287    1.2250    0.0000 H       1  UNL1        0.0265
     16 H           5.9316    1.2250    0.0000 H       1  UNL1        0.0265
     17 H           8.4607    1.2250    0.0000 H       1  UNL1        0.0265
     18 H           7.6636    1.2250    0.0000 H       1  UNL1        0.0265
     19 H           5.0656   -0.2249    0.0000 H       1  UNL1        0.0269
     20 H           5.8626   -0.2249    0.0000 H       1  UNL1        0.0269
     21 H           8.5297   -0.2249    0.0000 H       1  UNL1        0.0265
     22 H           9.3267   -0.2249    0.0000 H       1  UNL1        0.0265
     23 H           4.9966    1.2250    0.0000 H       1  UNL1        0.0342
     24 H           4.1996    1.2250    0.0000 H       1  UNL1        0.0342
     25 H          10.1928    1.2250    0.0000 H       1  UNL1        0.0263
     26 H           9.3957    1.2250    0.0000 H       1  UNL1        0.0263
     27 H          10.3503   -0.2869    0.0000 H       1  UNL1        0.0230
     28 H          11.1972   -0.0600    0.0000 H       1  UNL1        0.0230
     29 H          10.9703    0.7869    0.0000 H       1  UNL1        0.0230
     30 H           3.2646    1.2250    0.0000 H       1  UNL1        0.0339
     31 H           2.4675    1.2250    0.0000 H       1  UNL1        0.0339
     32 H           1.6900    0.7869    0.0000 H       1  UNL1        0.0234
     33 H           1.4631   -0.0600    0.0000 H       1  UNL1        0.0234
     34 H           2.3100   -0.2869    0.0000 H       1  UNL1        0.0234
@<TRIPOS>BOND
     1     1     9    2
     2     2     3    1
     3     2     4    1
     4     2    13    1
     5     2    14    1
     6     3     5    1
     7     3    15    1
     8     3    16    1
     9     4     6    1
    10     4    17    1
    11     4    18    1
    12     5     7    1
    13     5    19    1
    14     5    20    1
    15     6     8    1
    16     6    21    1
    17     6    22    1
    18     7     9    1
    19     7    23    1
    20     7    24    1
    21     8    10    1
    22     8    25    1
    23     8    26    1
    24     9    11    1
    25    10    27    1
    26    10    28    1
    27    10    29    1
    28    11    12    1
    29    11    30    1
    30    11    31    1
    31    12    32    1
    32    12    33    1
    33    12    34    1
