@<TRIPOS>MOLECULE
IMPHY012798
 27 30 0 0 0
SMALL
GASTEIGER

@<TRIPOS>ATOM
      1 O           4.5732   -1.9282    0.0000 O.3     1  UNL1       -0.4504
      2 O           3.1278   -2.7776    0.0000 O.3     1  UNL1       -0.4525
      3 O           5.3871    1.9693    0.0000 O.2     1  UNL1       -0.4449
      4 O           2.0520    1.8022    0.0000 O.3     1  UNL1       -0.4937
      5 N           4.6501    0.3022    0.0000 N.ar    1  UNL1       -0.2080
      6 C           2.9180    0.3022    0.0000 C.ar    1  UNL1        0.0467
      7 C           3.7841   -0.1978    0.0000 C.ar    1  UNL1        0.1236
      8 C           3.8001   -1.2393    0.0000 C.ar    1  UNL1        0.1922
      9 C           2.9180    1.3022    0.0000 C.ar    1  UNL1        0.1417
     10 C           3.7841    1.8022    0.0000 C.ar    1  UNL1        0.0820
     11 C           2.9021   -1.7671    0.0000 C.ar    1  UNL1        0.1684
     12 C           2.0080   -0.2047    0.0000 C.ar    1  UNL1       -0.0453
     13 C           4.6501    1.3022    0.0000 C.ar    1  UNL1        0.2312
     14 C           2.0000   -1.2463    0.0000 C.ar    1  UNL1       -0.0153
     15 C           4.1585   -2.8770    0.0000 C.3     1  UNL1        0.2333
     16 C           3.9933    2.7740    0.0000 C.ar    1  UNL1       -0.0109
     17 C           4.9820    2.8770    0.0000 C.ar    1  UNL1        0.0952
     18 C           2.0520    2.8022    0.0000 C.3     1  UNL1        0.0788
     19 H           1.4747    0.1115    0.0000 H       1  UNL1        0.0626
     20 H           1.4619   -1.5542    0.0000 H       1  UNL1        0.0655
     21 H           4.0344   -3.4845    0.0000 H       1  UNL1        0.1166
     22 H           4.7495   -3.0643    0.0000 H       1  UNL1        0.1166
     23 H           3.5792    3.2355    0.0000 H       1  UNL1        0.0657
     24 H           5.2920    3.4140    0.0000 H       1  UNL1        0.1030
     25 H           2.6720    2.8022    0.0000 H       1  UNL1        0.0660
     26 H           2.0520    3.4222    0.0000 H       1  UNL1        0.0660
     27 H           1.4320    2.8022    0.0000 H       1  UNL1        0.0660
@<TRIPOS>BOND
     1     1     8    1
     2     1    15    1
     3     2    11    1
     4     2    15    1
     5     3    13   ar
     6     3    17   ar
     7     4     9    1
     8     4    18    1
     9     5     7   ar
    10     5    13   ar
    11     6     7   ar
    12     6     9   ar
    13     6    12   ar
    14     7     8   ar
    15     8    11   ar
    16     9    10   ar
    17    10    13   ar
    18    10    16   ar
    19    11    14   ar
    20    12    14   ar
    21    12    19    1
    22    14    20    1
    23    15    21    1
    24    15    22    1
    25    16    17   ar
    26    16    23    1
    27    17    24    1
    28    18    25    1
    29    18    26    1
    30    18    27    1
