@<TRIPOS>MOLECULE
IMPHY014395
 25 25 0 0 0
SMALL
GASTEIGER

@<TRIPOS>ATOM
      1 O           2.5369   -1.0000    0.0000 O.3     1  UNL1       -0.5061
      2 O           3.4030    0.5000    0.0000 O.2     1  UNL1       -0.2872
      3 C           4.2690   -1.0000    0.0000 C.ar    1  UNL1        0.0630
      4 C           6.0010    2.0000    0.0000 C.3     1  UNL1       -0.0372
      5 C           4.2690    0.0000    0.0000 C.2     1  UNL1        0.1893
      6 C           3.4030   -1.5000    0.0000 C.ar    1  UNL1        0.1276
      7 C           5.1350   -1.5000    0.0000 C.ar    1  UNL1       -0.0474
      8 C           5.1350    1.5000    0.0000 C.2     1  UNL1       -0.0806
      9 C           5.1350    0.5000    0.0000 C.2     1  UNL1       -0.0182
     10 C           3.4030   -2.5000    0.0000 C.ar    1  UNL1       -0.0195
     11 C           5.1350   -2.5000    0.0000 C.ar    1  UNL1       -0.0609
     12 C           6.0010    3.0000    0.0000 C.3     1  UNL1       -0.0618
     13 C           4.2690   -3.0000    0.0000 C.ar    1  UNL1       -0.0583
     14 H           6.2131    1.4174    0.0000 H       1  UNL1        0.0305
     15 H           6.6116    2.1077    0.0000 H       1  UNL1        0.0305
     16 H           5.6720   -1.1900    0.0000 H       1  UNL1        0.0626
     17 H           4.5981    1.8100    0.0000 H       1  UNL1        0.0573
     18 H           5.6720    0.1900    0.0000 H       1  UNL1        0.0653
     19 H           2.8660   -2.8100    0.0000 H       1  UNL1        0.0654
     20 H           5.6720   -2.8100    0.0000 H       1  UNL1        0.0618
     21 H           6.6210    3.0000    0.0000 H       1  UNL1        0.0233
     22 H           6.0010    3.6200    0.0000 H       1  UNL1        0.0233
     23 H           5.3810    3.0000    0.0000 H       1  UNL1        0.0233
     24 H           4.2690   -3.6200    0.0000 H       1  UNL1        0.0619
     25 H           2.0000   -1.3100    0.0000 H       1  UNL1        0.2922
@<TRIPOS>BOND
     1     1     6    1
     2     1    25    1
     3     2     5    2
     4     3     5    1
     5     3     6   ar
     6     3     7   ar
     7     4     8    1
     8     4    12    1
     9     4    14    1
    10     4    15    1
    11     5     9    1
    12     6    10   ar
    13     7    11   ar
    14     7    16    1
    15     8     9    2
    16     8    17    1
    17     9    18    1
    18    10    13   ar
    19    10    19    1
    20    11    13   ar
    21    11    20    1
    22    12    21    1
    23    12    22    1
    24    12    23    1
    25    13    24    1
