@<TRIPOS>MOLECULE
IMPHY009151
 123 129 0 0 0
SMALL
GASTEIGER

@<TRIPOS>ATOM
      1 O           6.8671   -5.0496    0.0000 O.3     1  UNL1       -0.3449
      2 O           9.3896    1.2493    0.0000 O.3     1  UNL1       -0.4800
      3 O           9.5183   -0.1591    0.0000 O.2     1  UNL1       -0.2500
      4 O           8.6209    4.2298    0.0000 O.3     1  UNL1       -0.4318
      5 O           9.5042    2.7400    0.0000 O.2     1  UNL1       -0.2501
      6 O           5.1350   -5.0496    0.0000 O.3     1  UNL1       -0.3405
      7 O           9.4695    5.7398    0.0000 O.3     1  UNL1       -0.3312
      8 O           6.8671   -7.0496    0.0000 O.3     1  UNL1       -0.3841
      9 O           5.1350   -8.0496    0.0000 O.3     1  UNL1       -0.3864
     10 O           3.4030   -7.0496    0.0000 O.3     1  UNL1       -0.3865
     11 O          10.3644    3.2499    0.0000 O.3     1  UNL1       -0.3829
     12 O          12.0847    4.2699    0.0000 O.3     1  UNL1       -0.3864
     13 O           2.5369   -5.5496    0.0000 O.3     1  UNL1       -0.3924
     14 O          12.0616    6.2698    0.0000 O.3     1  UNL1       -0.3865
     15 O           9.4464    7.7396    0.0000 O.3     1  UNL1       -0.3924
     16 C           7.7681   -0.3494    0.0000 C.3     1  UNL1       -0.0090
     17 C           6.8920   -1.8943    0.0000 C.3     1  UNL1       -0.0249
     18 C           6.9040   -0.8527    0.0000 C.3     1  UNL1       -0.0252
     19 C           7.7643    0.6506    0.0000 C.3     1  UNL1        0.0944
     20 C           7.7920   -2.4186    0.0000 C.3     1  UNL1       -0.0278
     21 C           8.6801   -0.8527    0.0000 C.3     1  UNL1       -0.0457
     22 C           7.8046   -3.5035    0.0000 C.3     1  UNL1       -0.0052
     23 C           8.6921   -1.8943    0.0000 C.3     1  UNL1       -0.0486
     24 C           6.8963    1.1473    0.0000 C.2     1  UNL1       -0.0519
     25 C           6.8762    2.1887    0.0000 C.3     1  UNL1       -0.0003
     26 C           5.9421   -2.4186    0.0000 C.3     1  UNL1       -0.0447
     27 C           6.0361   -0.3560    0.0000 C.3     1  UNL1       -0.0306
     28 C           7.7722    2.7199    0.0000 C.3     1  UNL1        0.0746
     29 C           8.6723    1.1610    0.0000 C.3     1  UNL1       -0.0319
     30 C           6.8671   -4.0496    0.0000 C.3     1  UNL1        0.0672
     31 C           8.7522   -0.1719    0.0000 C.3     1  UNL1       -0.0580
     32 C           8.6763    2.2026    0.0000 C.3     1  UNL1       -0.0354
     33 C           6.0279   -1.3909    0.0000 C.3     1  UNL1       -0.0590
     34 C           5.9295   -3.5035    0.0000 C.3     1  UNL1       -0.0255
     35 C           6.0322    0.6440    0.0000 C.2     1  UNL1       -0.0831
     36 C           5.9223    2.7057    0.0000 C.3     1  UNL1       -0.0337
     37 C           7.7764    3.8049    0.0000 C.3     1  UNL1       -0.0364
     38 C           8.7497    0.4808    0.0000 C.2     1  UNL1        0.3156
     39 C           5.9014    3.7905    0.0000 C.3     1  UNL1       -0.0407
     40 C           8.8046   -3.4958    0.0000 C.3     1  UNL1       -0.0572
     41 C           8.3113   -4.3656    0.0000 C.3     1  UNL1       -0.0572
     42 C           6.8347    4.3438    0.0000 C.3     1  UNL1       -0.0492
     43 C           8.6324    3.2299    0.0000 C.2     1  UNL1        0.3161
     44 C           5.0681    2.1858    0.0000 C.3     1  UNL1       -0.0616
     45 C           5.0278    4.2770    0.0000 C.3     1  UNL1       -0.0622
     46 C           6.0010   -5.5496    0.0000 C.3     1  UNL1        0.1882
     47 C           6.0010   -6.5496    0.0000 C.3     1  UNL1        0.1341
     48 C           9.4810    4.7398    0.0000 C.3     1  UNL1        0.2337
     49 C           5.1350   -7.0496    0.0000 C.3     1  UNL1        0.1141
     50 C           4.2690   -5.5496    0.0000 C.3     1  UNL1        0.1130
     51 C           4.2690   -6.5496    0.0000 C.3     1  UNL1        0.1119
     52 C          10.3528    4.2499    0.0000 C.3     1  UNL1        0.1455
     53 C          11.2130    4.7599    0.0000 C.3     1  UNL1        0.1152
     54 C          10.3297    6.2497    0.0000 C.3     1  UNL1        0.1140
     55 C           3.4030   -5.0496    0.0000 C.3     1  UNL1        0.0730
     56 C          11.2014    5.7598    0.0000 C.3     1  UNL1        0.1120
     57 C          10.3181    7.2497    0.0000 C.3     1  UNL1        0.0731
     58 H           7.6385   -1.2805    0.0000 H       1  UNL1        0.0315
     59 H           8.5314   -2.8379    0.0000 H       1  UNL1        0.0312
     60 H           9.2921   -0.9517    0.0000 H       1  UNL1        0.0271
     61 H           8.8824   -0.2666    0.0000 H       1  UNL1        0.0271
     62 H           8.9079   -2.4755    0.0000 H       1  UNL1        0.0268
     63 H           9.3017   -1.7811    0.0000 H       1  UNL1        0.0268
     64 H           6.1502    1.7468    0.0000 H       1  UNL1        0.0359
     65 H           5.7398   -1.8325    0.0000 H       1  UNL1        0.0271
     66 H           5.3300   -2.5176    0.0000 H       1  UNL1        0.0271
     67 H           5.4251   -0.2507    0.0000 H       1  UNL1        0.0310
     68 H           5.8263   -0.9395    0.0000 H       1  UNL1        0.0310
     69 H           8.8791    0.5765    0.0000 H       1  UNL1        0.0279
     70 H           9.2836    1.2647    0.0000 H       1  UNL1        0.0279
     71 H           7.4046   -4.3586    0.0000 H       1  UNL1        0.0602
     72 H           8.8623   -0.7821    0.0000 H       1  UNL1        0.0236
     73 H           9.3624   -0.0619    0.0000 H       1  UNL1        0.0236
     74 H           8.6422    0.4382    0.0000 H       1  UNL1        0.0236
     75 H           9.2868    2.0942    0.0000 H       1  UNL1        0.0276
     76 H           8.8876    2.7855    0.0000 H       1  UNL1        0.0276
     77 H           6.3400   -0.8552    0.0000 H       1  UNL1        0.0235
     78 H           5.4922   -1.0789    0.0000 H       1  UNL1        0.0235
     79 H           5.7158   -1.9267    0.0000 H       1  UNL1        0.0235
     80 H           5.3199   -3.3903    0.0000 H       1  UNL1        0.0290
     81 H           5.7137   -4.0847    0.0000 H       1  UNL1        0.0290
     82 H           5.4941    0.9519    0.0000 H       1  UNL1        0.0572
     83 H           5.9378    2.0859    0.0000 H       1  UNL1        0.0307
     84 H           8.3869    3.6965    0.0000 H       1  UNL1        0.0276
     85 H           7.9877    4.3878    0.0000 H       1  UNL1        0.0276
     86 H           5.3699    3.4712    0.0000 H       1  UNL1        0.0301
     87 H           7.7767   -4.6798    0.0000 H       1  UNL1        0.0236
     88 H           8.6254   -4.9002    0.0000 H       1  UNL1        0.0236
     89 H           8.8458   -4.0515    0.0000 H       1  UNL1        0.0236
     90 H           8.8094   -4.1157    0.0000 H       1  UNL1        0.0236
     91 H           9.4246   -3.4910    0.0000 H       1  UNL1        0.0236
     92 H           8.7998   -2.8758    0.0000 H       1  UNL1        0.0236
     93 H           7.2302    4.8213    0.0000 H       1  UNL1        0.0268
     94 H           6.4319    4.8151    0.0000 H       1  UNL1        0.0268
     95 H           4.7458    2.7154    0.0000 H       1  UNL1        0.0233
     96 H           4.5385    1.8634    0.0000 H       1  UNL1        0.0233
     97 H           5.3904    1.6562    0.0000 H       1  UNL1        0.0233
     98 H           5.3295    4.8187    0.0000 H       1  UNL1        0.0233
     99 H           4.4861    4.5787    0.0000 H       1  UNL1        0.0233
    100 H           4.7261    3.7354    0.0000 H       1  UNL1        0.0233
    101 H          10.0006    1.1440    0.0000 H       1  UNL1        0.2951
    102 H           6.0010   -4.9296    0.0000 H       1  UNL1        0.0937
    103 H           6.0010   -7.1696    0.0000 H       1  UNL1        0.0671
    104 H           9.4882    4.1199    0.0000 H       1  UNL1        0.1085
    105 H           4.5981   -7.3596    0.0000 H       1  UNL1        0.0648
    106 H           4.2690   -4.9296    0.0000 H       1  UNL1        0.0647
    107 H           3.7320   -6.2396    0.0000 H       1  UNL1        0.0647
    108 H          10.8933    3.9461    0.0000 H       1  UNL1        0.0683
    109 H           6.8671   -7.6696    0.0000 H       1  UNL1        0.2101
    110 H          11.7463    5.0761    0.0000 H       1  UNL1        0.0648
    111 H           9.7892    6.5535    0.0000 H       1  UNL1        0.0647
    112 H           3.8015   -4.5746    0.0000 H       1  UNL1        0.0584
    113 H           3.0044   -4.5746    0.0000 H       1  UNL1        0.0584
    114 H          11.1943    6.3797    0.0000 H       1  UNL1        0.0647
    115 H           4.5981   -8.3596    0.0000 H       1  UNL1        0.2100
    116 H           3.4030   -7.6696    0.0000 H       1  UNL1        0.2100
    117 H          10.9049    2.9462    0.0000 H       1  UNL1        0.2102
    118 H          10.9299    7.1491    0.0000 H       1  UNL1        0.0584
    119 H          10.5234    7.8347    0.0000 H       1  UNL1        0.0584
    120 H          12.6181    4.5861    0.0000 H       1  UNL1        0.2100
    121 H           2.0000   -5.2396    0.0000 H       1  UNL1        0.2095
    122 H          12.0544    6.8897    0.0000 H       1  UNL1        0.2100
    123 H           9.4392    8.3596    0.0000 H       1  UNL1        0.2095
@<TRIPOS>BOND
     1    30     1    1
     2    46     1    1
     3     2    38    1
     4     2   101    1
     5     3    38    2
     6     4    43    1
     7    48     4    1
     8     5    43    2
     9     6    46    1
    10     6    50    1
    11     7    48    1
    12     7    54    1
    13    47     8    1
    14     8   109    1
    15    49     9    1
    16     9   115    1
    17    51    10    1
    18    10   116    1
    19    52    11    1
    20    11   117    1
    21    53    12    1
    22    12   120    1
    23    13    55    1
    24    13   121    1
    25    56    14    1
    26    14   122    1
    27    15    57    1
    28    15   123    1
    29    16    18    1
    30    16    19    1
    31    16    21    1
    32    16    31    1
    33    17    18    1
    34    17    20    1
    35    17    26    1
    36    17    33    1
    37    18    27    1
    38    18    58    1
    39    19    24    1
    40    19    29    1
    41    19    38    1
    42    20    22    1
    43    20    23    1
    44    20    59    1
    45    21    23    1
    46    21    60    1
    47    21    61    1
    48    22    30    1
    49    22    40    1
    50    22    41    1
    51    23    62    1
    52    23    63    1
    53    24    25    1
    54    24    35    2
    55    25    28    1
    56    25    36    1
    57    25    64    1
    58    26    34    1
    59    26    65    1
    60    26    66    1
    61    27    35    1
    62    27    67    1
    63    27    68    1
    64    28    32    1
    65    28    37    1
    66    28    43    1
    67    29    32    1
    68    29    69    1
    69    29    70    1
    70    30    34    1
    71    30    71    1
    72    31    72    1
    73    31    73    1
    74    31    74    1
    75    32    75    1
    76    32    76    1
    77    33    77    1
    78    33    78    1
    79    33    79    1
    80    34    80    1
    81    34    81    1
    82    35    82    1
    83    36    39    1
    84    36    44    1
    85    36    83    1
    86    37    42    1
    87    37    84    1
    88    37    85    1
    89    39    42    1
    90    39    45    1
    91    39    86    1
    92    40    90    1
    93    40    91    1
    94    40    92    1
    95    41    87    1
    96    41    88    1
    97    41    89    1
    98    42    93    1
    99    42    94    1
   100    44    95    1
   101    44    96    1
   102    44    97    1
   103    45    98    1
   104    45    99    1
   105    45   100    1
   106    46    47    1
   107    46   102    1
   108    47    49    1
   109    47   103    1
   110    48    52    1
   111    48   104    1
   112    49    51    1
   113    49   105    1
   114    50    51    1
   115    50    55    1
   116    50   106    1
   117    51   107    1
   118    52    53    1
   119    52   108    1
   120    53    56    1
   121    53   110    1
   122    54    56    1
   123    54    57    1
   124    54   111    1
   125    55   112    1
   126    55   113    1
   127    56   114    1
   128    57   118    1
   129    57   119    1
