@<TRIPOS>MOLECULE
IMPHY001696
 60 60 0 0 0
SMALL
GASTEIGER

@<TRIPOS>ATOM
      1 C           6.5000    1.2990    0.0000 C.3     1  UNL1       -0.0387
      2 C           6.0000    0.4330    0.0000 C.3     1  UNL1       -0.0497
      3 C           6.0000    2.1651    0.0000 C.3     1  UNL1       -0.0497
      4 C           7.5000    1.2990    0.0000 C.3     1  UNL1       -0.0439
      5 C           6.5000   -0.4330    0.0000 C.3     1  UNL1       -0.0502
      6 C           5.0000    2.1651    0.0000 C.3     1  UNL1       -0.0502
      7 C           6.0000   -1.2990    0.0000 C.3     1  UNL1       -0.0439
      8 C           4.5000    1.2990    0.0000 C.3     1  UNL1       -0.0439
      9 C           5.0000   -1.2990    0.0000 C.3     1  UNL1       -0.0505
     10 C           3.5000    1.2990    0.0000 C.3     1  UNL1       -0.0505
     11 C           3.0000   -1.2990    0.0000 C.3     1  UNL1       -0.0439
     12 C           4.5000   -2.1651    0.0000 C.3     1  UNL1       -0.0526
     13 C           3.0000    0.4330    0.0000 C.3     1  UNL1       -0.0526
     14 C           3.5000   -2.1651    0.0000 C.3     1  UNL1       -0.0505
     15 C           3.5000   -0.4330    0.0000 C.3     1  UNL1       -0.0505
     16 C           8.0000    2.1651    0.0000 C.3     1  UNL1       -0.0624
     17 C           8.0000    0.4330    0.0000 C.3     1  UNL1       -0.0624
     18 C           6.5000   -2.1651    0.0000 C.3     1  UNL1       -0.0624
     19 C           5.0000    0.4330    0.0000 C.3     1  UNL1       -0.0624
     20 C           2.0000   -1.2990    0.0000 C.3     1  UNL1       -0.0624
     21 H           6.8100    0.7621    0.0000 H       1  UNL1        0.0303
     22 H           6.5826    2.3771    0.0000 H       1  UNL1        0.0268
     23 H           5.8923    2.7756    0.0000 H       1  UNL1        0.0268
     24 H           5.5250    0.8315    0.0000 H       1  UNL1        0.0268
     25 H           5.5250    0.0345    0.0000 H       1  UNL1        0.0268
     26 H           8.1200    1.2990    0.0000 H       1  UNL1        0.0298
     27 H           5.1077    2.7756    0.0000 H       1  UNL1        0.0268
     28 H           4.4174    2.3771    0.0000 H       1  UNL1        0.0268
     29 H           6.9750   -0.8315    0.0000 H       1  UNL1        0.0268
     30 H           6.9750   -0.0345    0.0000 H       1  UNL1        0.0268
     31 H           6.6200   -1.2990    0.0000 H       1  UNL1        0.0298
     32 H           5.1200    1.2990    0.0000 H       1  UNL1        0.0298
     33 H           5.1077   -0.6885    0.0000 H       1  UNL1        0.0268
     34 H           4.4174   -1.0870    0.0000 H       1  UNL1        0.0268
     35 H           3.6077    1.9096    0.0000 H       1  UNL1        0.0268
     36 H           2.9174    1.5111    0.0000 H       1  UNL1        0.0268
     37 H           2.6900   -0.7621    0.0000 H       1  UNL1        0.0298
     38 H           2.5250    0.8315    0.0000 H       1  UNL1        0.0265
     39 H           2.5250    0.0345    0.0000 H       1  UNL1        0.0265
     40 H           4.3923   -2.7756    0.0000 H       1  UNL1        0.0265
     41 H           5.0826   -2.3771    0.0000 H       1  UNL1        0.0265
     42 H           2.9174   -2.3771    0.0000 H       1  UNL1        0.0268
     43 H           3.6077   -2.7756    0.0000 H       1  UNL1        0.0268
     44 H           3.9750   -0.8315    0.0000 H       1  UNL1        0.0268
     45 H           3.9750   -0.0345    0.0000 H       1  UNL1        0.0268
     46 H           7.4631    0.1230    0.0000 H       1  UNL1        0.0232
     47 H           8.3100   -0.1039    0.0000 H       1  UNL1        0.0232
     48 H           8.5369    0.7430    0.0000 H       1  UNL1        0.0232
     49 H           8.5369    1.8551    0.0000 H       1  UNL1        0.0232
     50 H           8.3100    2.7020    0.0000 H       1  UNL1        0.0232
     51 H           7.4631    2.4751    0.0000 H       1  UNL1        0.0232
     52 H           4.4631    0.1230    0.0000 H       1  UNL1        0.0232
     53 H           5.3100   -0.1039    0.0000 H       1  UNL1        0.0232
     54 H           5.5369    0.7430    0.0000 H       1  UNL1        0.0232
     55 H           5.9631   -2.4751    0.0000 H       1  UNL1        0.0232
     56 H           6.8100   -2.7020    0.0000 H       1  UNL1        0.0232
     57 H           7.0369   -1.8551    0.0000 H       1  UNL1        0.0232
     58 H           2.0000   -0.6790    0.0000 H       1  UNL1        0.0232
     59 H           1.3800   -1.2990    0.0000 H       1  UNL1        0.0232
     60 H           2.0000   -1.9190    0.0000 H       1  UNL1        0.0232
@<TRIPOS>BOND
     1     1     2    1
     2     1     3    1
     3     1     4    1
     4     1    21    1
     5     2     5    1
     6     2    24    1
     7     2    25    1
     8     3     6    1
     9     3    22    1
    10     3    23    1
    11     4    16    1
    12     4    17    1
    13     4    26    1
    14     5     7    1
    15     5    29    1
    16     5    30    1
    17     6     8    1
    18     6    27    1
    19     6    28    1
    20     7     9    1
    21     7    18    1
    22     7    31    1
    23     8    10    1
    24     8    19    1
    25     8    32    1
    26     9    12    1
    27     9    33    1
    28     9    34    1
    29    10    13    1
    30    10    35    1
    31    10    36    1
    32    11    14    1
    33    11    15    1
    34    11    20    1
    35    11    37    1
    36    12    14    1
    37    12    40    1
    38    12    41    1
    39    13    15    1
    40    13    38    1
    41    13    39    1
    42    14    42    1
    43    14    43    1
    44    15    44    1
    45    15    45    1
    46    16    49    1
    47    16    50    1
    48    16    51    1
    49    17    46    1
    50    17    47    1
    51    17    48    1
    52    18    55    1
    53    18    56    1
    54    18    57    1
    55    19    52    1
    56    19    53    1
    57    19    54    1
    58    20    58    1
    59    20    59    1
    60    20    60    1
