@<TRIPOS>MOLECULE
IMPHY014766
 63 66 0 0 0
SMALL
GASTEIGER

@<TRIPOS>ATOM
      1 O          13.8195   -0.2961    0.0000 O.3     1  UNL1       -0.3883
      2 O          10.3312    0.5950    0.0000 O.2     1  UNL1       -0.4701
      3 O          11.1972   -0.9050    0.0000 O.3     1  UNL1       -0.3095
      4 O           9.4651   -0.9050    0.0000 O.3     1  UNL1       -0.3393
      5 O          11.1972   -2.9050    0.0000 O.3     1  UNL1       -0.3841
      6 O           9.4651   -3.9050    0.0000 O.3     1  UNL1       -0.3864
      7 O          10.3312    3.5950    0.0000 O.3     1  UNL1       -0.4773
      8 O           7.7331   -2.9050    0.0000 O.3     1  UNL1       -0.3864
      9 O          12.0632    3.5950    0.0000 O.2     1  UNL1       -0.2454
     10 O           6.8671   -1.4050    0.0000 O.3     1  UNL1       -0.4585
     11 O           6.0010    0.0950    0.0000 O.2     1  UNL1       -0.2450
     12 O           2.5369   -2.9050    0.0000 O.3     1  UNL1       -0.5068
     13 C          12.0632    0.5950    0.0000 C.3     1  UNL1        0.0572
     14 C          13.0094    0.2903    0.0000 C.3     1  UNL1        0.0724
     15 C          12.0632    1.5950    0.0000 C.3     1  UNL1        0.0050
     16 C          13.5930    1.0950    0.0000 C.3     1  UNL1       -0.0232
     17 C          13.0094    1.8997    0.0000 C.3     1  UNL1       -0.0427
     18 C          11.1972    0.0950    0.0000 C.3     1  UNL1        0.2094
     19 C          11.1972    2.0950    0.0000 C.2     1  UNL1        0.0742
     20 C          12.7021   -0.6613    0.0000 C.3     1  UNL1       -0.0356
     21 C          10.3312    1.5950    0.0000 C.2     1  UNL1        0.0981
     22 C          10.3312   -1.4050    0.0000 C.3     1  UNL1        0.1919
     23 C          10.3312   -2.4050    0.0000 C.3     1  UNL1        0.1343
     24 C           9.4651   -2.9050    0.0000 C.3     1  UNL1        0.1141
     25 C          11.1972    3.0950    0.0000 C.2     1  UNL1        0.3360
     26 C           8.5991   -2.4050    0.0000 C.3     1  UNL1        0.1129
     27 C           8.5991   -1.4050    0.0000 C.3     1  UNL1        0.1240
     28 C           7.7331   -0.9050    0.0000 C.3     1  UNL1        0.1215
     29 C           6.0010   -0.9050    0.0000 C.2     1  UNL1        0.3393
     30 C           5.1350   -1.4050    0.0000 C.ar    1  UNL1        0.0592
     31 C           5.1350   -2.4050    0.0000 C.ar    1  UNL1       -0.0443
     32 C           4.2690   -0.9050    0.0000 C.ar    1  UNL1       -0.0443
     33 C           4.2690   -2.9050    0.0000 C.ar    1  UNL1       -0.0194
     34 C           3.4030   -1.4050    0.0000 C.ar    1  UNL1       -0.0194
     35 C           3.4030   -2.4050    0.0000 C.ar    1  UNL1        0.1169
     36 H          12.1532   -0.2502    0.0000 H       1  UNL1        0.0395
     37 H          12.1532    2.4402    0.0000 H       1  UNL1        0.0358
     38 H          14.0539    0.6803    0.0000 H       1  UNL1        0.0293
     39 H          14.0539    1.5097    0.0000 H       1  UNL1        0.0293
     40 H          13.5468    2.2090    0.0000 H       1  UNL1        0.0272
     41 H          12.7584    2.4666    0.0000 H       1  UNL1        0.0272
     42 H          11.7341   -0.2150    0.0000 H       1  UNL1        0.1060
     43 H          12.1121   -0.4708    0.0000 H       1  UNL1        0.0257
     44 H          12.5115   -1.2513    0.0000 H       1  UNL1        0.0257
     45 H          13.2921   -0.8519    0.0000 H       1  UNL1        0.0257
     46 H          14.3854   -0.0430    0.0000 H       1  UNL1        0.2102
     47 H           9.7942    1.9050    0.0000 H       1  UNL1        0.1029
     48 H          10.3312   -0.7850    0.0000 H       1  UNL1        0.0939
     49 H          10.3312   -3.0250    0.0000 H       1  UNL1        0.0671
     50 H           8.9282   -3.2150    0.0000 H       1  UNL1        0.0648
     51 H           8.5991   -3.0250    0.0000 H       1  UNL1        0.0647
     52 H           8.5991   -0.7850    0.0000 H       1  UNL1        0.0658
     53 H           8.1316   -0.4301    0.0000 H       1  UNL1        0.0725
     54 H           7.3346   -0.4301    0.0000 H       1  UNL1        0.0725
     55 H          11.1972   -3.5250    0.0000 H       1  UNL1        0.2101
     56 H           8.9282   -4.2150    0.0000 H       1  UNL1        0.2100
     57 H          10.3312    4.2150    0.0000 H       1  UNL1        0.2954
     58 H           7.7331   -3.5250    0.0000 H       1  UNL1        0.2100
     59 H           5.6720   -2.7150    0.0000 H       1  UNL1        0.0627
     60 H           4.2690   -0.2850    0.0000 H       1  UNL1        0.0627
     61 H           4.2690   -3.5250    0.0000 H       1  UNL1        0.0654
     62 H           2.8660   -1.0950    0.0000 H       1  UNL1        0.0654
     63 H           2.0000   -2.5950    0.0000 H       1  UNL1        0.2921
@<TRIPOS>BOND
     1    14     1    1
     2     1    46    1
     3     2    18    1
     4     2    21    1
     5    18     3    1
     6    22     3    1
     7     4    22    1
     8     4    27    1
     9    23     5    1
    10     5    55    1
    11    24     6    1
    12     6    56    1
    13     7    25    1
    14     7    57    1
    15    26     8    1
    16     8    58    1
    17     9    25    2
    18    10    28    1
    19    10    29    1
    20    11    29    2
    21    12    35    1
    22    12    63    1
    23    13    14    1
    24    13    15    1
    25    13    18    1
    26    13    36    1
    27    14    16    1
    28    14    20    1
    29    15    17    1
    30    15    19    1
    31    15    37    1
    32    16    17    1
    33    16    38    1
    34    16    39    1
    35    17    40    1
    36    17    41    1
    37    18    42    1
    38    19    21    2
    39    19    25    1
    40    20    43    1
    41    20    44    1
    42    20    45    1
    43    21    47    1
    44    22    23    1
    45    22    48    1
    46    23    24    1
    47    23    49    1
    48    24    26    1
    49    24    50    1
    50    26    27    1
    51    26    51    1
    52    27    28    1
    53    27    52    1
    54    28    53    1
    55    28    54    1
    56    29    30    1
    57    30    31   ar
    58    30    32   ar
    59    31    33   ar
    60    31    59    1
    61    32    34   ar
    62    32    60    1
    63    33    35   ar
    64    33    61    1
    65    34    35   ar
    66    34    62    1
