@<TRIPOS>MOLECULE
IMPHY003536
 24 24 0 0 0
SMALL
GASTEIGER

@<TRIPOS>ATOM
      1 O           4.2690    2.0000    0.0000 O.3     1  UNL1       -0.4915
      2 O           2.5369    1.0000    0.0000 O.3     1  UNL1       -0.5033
      3 C           5.1350   -0.5000    0.0000 C.ar    1  UNL1       -0.0400
      4 C           6.0010   -1.0000    0.0000 C.3     1  UNL1       -0.0096
      5 C           5.1350    0.5000    0.0000 C.ar    1  UNL1       -0.0128
      6 C           4.2690    1.0000    0.0000 C.ar    1  UNL1        0.1615
      7 C           4.2690   -1.0000    0.0000 C.ar    1  UNL1       -0.0546
      8 C           3.4030    0.5000    0.0000 C.ar    1  UNL1        0.1585
      9 C           3.4030   -0.5000    0.0000 C.ar    1  UNL1       -0.0163
     10 C           6.0010   -2.0000    0.0000 C.2     1  UNL1       -0.0868
     11 C           5.1350    2.5000    0.0000 C.3     1  UNL1        0.0790
     12 C           6.8671   -2.5000    0.0000 C.2     1  UNL1       -0.1023
     13 H           6.6116   -1.1077    0.0000 H       1  UNL1        0.0355
     14 H           6.2131   -0.4174    0.0000 H       1  UNL1        0.0355
     15 H           5.6720    0.8100    0.0000 H       1  UNL1        0.0658
     16 H           4.2690   -1.6200    0.0000 H       1  UNL1        0.0622
     17 H           2.8660   -0.8100    0.0000 H       1  UNL1        0.0655
     18 H           5.4641   -2.3100    0.0000 H       1  UNL1        0.0570
     19 H           5.4450    1.9631    0.0000 H       1  UNL1        0.0660
     20 H           5.6720    2.8100    0.0000 H       1  UNL1        0.0660
     21 H           4.8250    3.0369    0.0000 H       1  UNL1        0.0660
     22 H           2.0000    0.6900    0.0000 H       1  UNL1        0.2923
     23 H           6.8671   -3.1200    0.0000 H       1  UNL1        0.0532
     24 H           7.4040   -2.1900    0.0000 H       1  UNL1        0.0532
@<TRIPOS>BOND
     1     1     6    1
     2     1    11    1
     3     2     8    1
     4     2    22    1
     5     3     4    1
     6     3     5   ar
     7     3     7   ar
     8     4    10    1
     9     4    13    1
    10     4    14    1
    11     5     6   ar
    12     5    15    1
    13     6     8   ar
    14     7     9   ar
    15     7    16    1
    16     8     9   ar
    17     9    17    1
    18    10    12    2
    19    10    18    1
    20    11    19    1
    21    11    20    1
    22    11    21    1
    23    12    23    1
    24    12    24    1
