@<TRIPOS>MOLECULE
IMPHY009746
 33 33 0 0 0
SMALL
GASTEIGER

@<TRIPOS>ATOM
      1 O           3.6180   -0.5229    0.0000 O.3     1  UNL1       -0.4583
      2 O           3.8968   -2.2829    0.0000 O.2     1  UNL1       -0.2508
      3 C           2.8090    0.0649    0.0000 C.3     1  UNL1        0.1113
      4 C           3.3968    0.8739    0.0000 C.3     1  UNL1       -0.0131
      5 C           2.0000   -0.5229    0.0000 C.3     1  UNL1       -0.0030
      6 C           4.3913    0.7694    0.0000 C.3     1  UNL1       -0.0495
      7 C           2.3090   -1.4739    0.0000 C.3     1  UNL1        0.0486
      8 C           2.2212    0.8739    0.0000 C.3     1  UNL1       -0.0248
      9 C           4.9791    1.5784    0.0000 C.3     1  UNL1       -0.0529
     10 C           3.3090   -1.4739    0.0000 C.2     1  UNL1        0.3077
     11 C           5.9736    1.4739    0.0000 C.3     1  UNL1       -0.0533
     12 C           6.5614    2.2829    0.0000 C.3     1  UNL1       -0.0559
     13 C           7.5559    2.1784    0.0000 C.3     1  UNL1       -0.0653
     14 H           3.5677    1.4699    0.0000 H       1  UNL1        0.0304
     15 H           2.8396    1.1457    0.0000 H       1  UNL1        0.0304
     16 H           1.6900    0.0141    0.0000 H       1  UNL1        0.0309
     17 H           1.4336   -0.7750    0.0000 H       1  UNL1        0.0309
     18 H           4.2204    0.1734    0.0000 H       1  UNL1        0.0267
     19 H           4.9486    0.4976    0.0000 H       1  UNL1        0.0267
     20 H           1.7026   -1.6028    0.0000 H       1  UNL1        0.0379
     21 H           2.3738   -2.0905    0.0000 H       1  UNL1        0.0379
     22 H           2.7228    1.2384    0.0000 H       1  UNL1        0.0268
     23 H           1.8568    1.3755    0.0000 H       1  UNL1        0.0268
     24 H           1.7196    0.5095    0.0000 H       1  UNL1        0.0268
     25 H           5.1500    2.1744    0.0000 H       1  UNL1        0.0265
     26 H           4.4219    1.8502    0.0000 H       1  UNL1        0.0265
     27 H           5.8027    0.8779    0.0000 H       1  UNL1        0.0265
     28 H           6.5309    1.2021    0.0000 H       1  UNL1        0.0265
     29 H           6.7323    2.8789    0.0000 H       1  UNL1        0.0263
     30 H           6.0042    2.5547    0.0000 H       1  UNL1        0.0263
     31 H           7.4911    1.5618    0.0000 H       1  UNL1        0.0230
     32 H           8.1725    2.1136    0.0000 H       1  UNL1        0.0230
     33 H           7.6208    2.7950    0.0000 H       1  UNL1        0.0230
@<TRIPOS>BOND
     1     1     3    1
     2     1    10    1
     3     2    10    2
     4     3     4    1
     5     3     5    1
     6     3     8    1
     7     4     6    1
     8     4    14    1
     9     4    15    1
    10     5     7    1
    11     5    16    1
    12     5    17    1
    13     6     9    1
    14     6    18    1
    15     6    19    1
    16     7    10    1
    17     7    20    1
    18     7    21    1
    19     8    22    1
    20     8    23    1
    21     8    24    1
    22     9    11    1
    23     9    25    1
    24     9    26    1
    25    11    12    1
    26    11    27    1
    27    11    28    1
    28    12    13    1
    29    12    29    1
    30    12    30    1
    31    13    31    1
    32    13    32    1
    33    13    33    1
