@<TRIPOS>MOLECULE
IMPHY009694
 23 23 0 0 0
SMALL
GASTEIGER

@<TRIPOS>ATOM
      1 O           4.5691   -1.3184    0.0000 O.2     1  UNL1       -0.4633
      2 C           2.9511   -1.3184    0.0000 C.ar    1  UNL1       -0.0053
      3 C           3.7601   -0.7306    0.0000 C.ar    1  UNL1        0.1306
      4 C           3.2601   -2.2694    0.0000 C.ar    1  UNL1       -0.0204
      5 C           3.7601    0.2694    0.0000 C.2     1  UNL1       -0.0189
      6 C           2.0000   -1.0094    0.0000 C.3     1  UNL1       -0.0361
      7 C           4.2601   -2.2694    0.0000 C.ar    1  UNL1        0.0928
      8 C           4.6261    0.7694    0.0000 C.2     1  UNL1       -0.0559
      9 C           4.6261    1.7694    0.0000 C.2     1  UNL1       -0.0574
     10 C           5.4921    2.2694    0.0000 C.3     1  UNL1       -0.0403
     11 C           3.7601    2.2694    0.0000 C.2     1  UNL1       -0.0958
     12 H           2.8956   -2.7710    0.0000 H       1  UNL1        0.0652
     13 H           3.2231    0.5794    0.0000 H       1  UNL1        0.0654
     14 H           2.1916   -0.4197    0.0000 H       1  UNL1        0.0279
     15 H           1.4103   -0.8178    0.0000 H       1  UNL1        0.0279
     16 H           1.8084   -1.5990    0.0000 H       1  UNL1        0.0279
     17 H           4.6245   -2.7710    0.0000 H       1  UNL1        0.1029
     18 H           5.1630    0.4594    0.0000 H       1  UNL1        0.0621
     19 H           5.8021    1.7325    0.0000 H       1  UNL1        0.0277
     20 H           6.0291    2.5794    0.0000 H       1  UNL1        0.0277
     21 H           5.1821    2.8064    0.0000 H       1  UNL1        0.0277
     22 H           3.7601    2.8894    0.0000 H       1  UNL1        0.0537
     23 H           3.2231    1.9594    0.0000 H       1  UNL1        0.0537
@<TRIPOS>BOND
     1     1     3   ar
     2     1     7   ar
     3     2     3   ar
     4     2     4   ar
     5     2     6    1
     6     3     5    1
     7     4     7   ar
     8     4    12    1
     9     5     8    2
    10     5    13    1
    11     6    14    1
    12     6    15    1
    13     6    16    1
    14     7    17    1
    15     8     9    1
    16     8    18    1
    17     9    10    1
    18     9    11    2
    19    10    19    1
    20    10    20    1
    21    10    21    1
    22    11    22    1
    23    11    23    1
