@<TRIPOS>MOLECULE
IMPHY003025
 31 31 0 0 0
SMALL
GASTEIGER

@<TRIPOS>ATOM
      1 O           3.7320   -2.1900    0.0000 O.3     1  UNL1       -0.3875
      2 O           2.8660    1.3100    0.0000 O.3     1  UNL1       -0.4913
      3 O           6.3301    1.3100    0.0000 O.3     1  UNL1       -0.4913
      4 O           4.5981    2.3100    0.0000 O.3     1  UNL1       -0.4885
      5 C           4.5981   -0.6900    0.0000 C.ar    1  UNL1       -0.0123
      6 C           4.5981   -1.6900    0.0000 C.3     1  UNL1        0.0776
      7 C           5.4641   -0.1900    0.0000 C.ar    1  UNL1       -0.0104
      8 C           3.7320   -0.1900    0.0000 C.ar    1  UNL1       -0.0104
      9 C           3.7320    0.8100    0.0000 C.ar    1  UNL1        0.1655
     10 C           5.4641    0.8100    0.0000 C.ar    1  UNL1        0.1655
     11 C           4.5981    1.3100    0.0000 C.ar    1  UNL1        0.2035
     12 C           5.4641   -2.1900    0.0000 C.3     1  UNL1       -0.0348
     13 C           2.0000    0.8100    0.0000 C.3     1  UNL1        0.0790
     14 C           7.1962    0.8100    0.0000 C.3     1  UNL1        0.0790
     15 C           5.4641    2.8100    0.0000 C.3     1  UNL1        0.0791
     16 H           4.5981   -2.5400    0.0000 H       1  UNL1        0.0641
     17 H           6.0010   -0.5000    0.0000 H       1  UNL1        0.0659
     18 H           3.1951   -0.5000    0.0000 H       1  UNL1        0.0659
     19 H           5.1541   -2.7269    0.0000 H       1  UNL1        0.0258
     20 H           6.0010   -2.5000    0.0000 H       1  UNL1        0.0258
     21 H           5.7741   -1.6531    0.0000 H       1  UNL1        0.0258
     22 H           3.7320   -2.8100    0.0000 H       1  UNL1        0.2102
     23 H           1.6900    1.3469    0.0000 H       1  UNL1        0.0660
     24 H           1.4631    0.5000    0.0000 H       1  UNL1        0.0660
     25 H           2.3100    0.2731    0.0000 H       1  UNL1        0.0660
     26 H           6.8862    0.2731    0.0000 H       1  UNL1        0.0660
     27 H           7.7331    0.5000    0.0000 H       1  UNL1        0.0660
     28 H           7.5062    1.3469    0.0000 H       1  UNL1        0.0660
     29 H           5.7741    2.2731    0.0000 H       1  UNL1        0.0660
     30 H           6.0010    3.1200    0.0000 H       1  UNL1        0.0660
     31 H           5.1541    3.3469    0.0000 H       1  UNL1        0.0660
@<TRIPOS>BOND
     1     1     6    1
     2     1    22    1
     3     2     9    1
     4     2    13    1
     5     3    10    1
     6     3    14    1
     7     4    11    1
     8     4    15    1
     9     5     6    1
    10     5     7   ar
    11     5     8   ar
    12     6    12    1
    13     6    16    1
    14     7    10   ar
    15     7    17    1
    16     8     9   ar
    17     8    18    1
    18     9    11   ar
    19    10    11   ar
    20    12    19    1
    21    12    20    1
    22    12    21    1
    23    13    23    1
    24    13    24    1
    25    13    25    1
    26    14    26    1
    27    14    27    1
    28    14    28    1
    29    15    29    1
    30    15    30    1
    31    15    31    1
