@<TRIPOS>MOLECULE
IMPHY001341
 86 92 0 0 0
SMALL
GASTEIGER

@<TRIPOS>ATOM
      1 O           6.5966   -2.9811    0.0000 O.3     1  UNL1       -0.3554
      2 O           3.6412   -1.9830    0.0000 O.3     1  UNL1       -0.3730
      3 O           5.5858   -3.3485    0.0000 O.3     1  UNL1       -0.3886
      4 O           7.3342    0.6861    0.0000 O.3     1  UNL1       -0.3889
      5 O           9.0662   -0.3139    0.0000 O.3     1  UNL1       -0.3886
      6 O           6.4748    1.2887    0.0000 O.3     1  UNL1       -0.4574
      7 O           9.0321   -4.2548    0.0000 O.2     1  UNL1       -0.2939
      8 O           2.8602    1.3305    0.0000 O.3     1  UNL1       -0.4608
      9 O          11.5246   -2.4467    0.0000 O.3     1  UNL1       -0.3867
     10 O          10.5514   -3.9395    0.0000 O.2     1  UNL1       -0.2448
     11 O           5.6378    2.8051    0.0000 O.2     1  UNL1       -0.2453
     12 O          11.9888   -0.7262    0.0000 O.2     1  UNL1       -0.2451
     13 O           3.7320    2.8272    0.0000 O.2     1  UNL1       -0.2512
     14 C           7.3342   -2.3139    0.0000 C.3     1  UNL1        0.1202
     15 C           6.4681   -1.8139    0.0000 C.3     1  UNL1        0.0347
     16 C           6.4681   -0.8139    0.0000 C.3     1  UNL1        0.0072
     17 C           8.2002   -1.8139    0.0000 C.3     1  UNL1        0.0426
     18 C           5.5742   -0.2792    0.0000 C.3     1  UNL1        0.0169
     19 C           7.5434   -3.2857    0.0000 C.3     1  UNL1        0.1479
     20 C           4.6681   -0.7931    0.0000 C.3     1  UNL1        0.0077
     21 C           5.5742   -2.3485    0.0000 C.3     1  UNL1        0.0900
     22 C           7.3342   -0.3139    0.0000 C.3     1  UNL1        0.0858
     23 C           8.2002   -0.8139    0.0000 C.3     1  UNL1        0.0904
     24 C           4.6681   -1.8347    0.0000 C.3     1  UNL1        0.0892
     25 C           8.9372   -2.4810    0.0000 C.3     1  UNL1        0.0627
     26 C           3.7243   -0.2578    0.0000 C.3     1  UNL1        0.0343
     27 C           8.5321   -3.3888    0.0000 C.2     1  UNL1        0.1729
     28 C           5.5993    0.8055    0.0000 C.3     1  UNL1        0.1128
     29 C           6.1262   -2.7536    0.0000 C.3     1  UNL1       -0.0540
     30 C           9.0662   -1.3139    0.0000 C.3     1  UNL1       -0.0534
     31 C           3.7243    0.8272    0.0000 C.3     1  UNL1        0.1142
     32 C           6.4440    0.2141    0.0000 C.3     1  UNL1       -0.0555
     33 C           3.1084   -1.0928    0.0000 C.3     1  UNL1        0.0572
     34 C           4.6681    1.3624    0.0000 C.3     1  UNL1        0.0227
     35 C           9.9157   -2.2747    0.0000 C.2     1  UNL1        0.0548
     36 C           2.7243   -0.2616    0.0000 C.3     1  UNL1       -0.0537
     37 C          10.3240   -1.3619    0.0000 C.2     1  UNL1        0.0336
     38 C          10.6577   -2.9452    0.0000 C.2     1  UNL1        0.3436
     39 C           6.4940    2.2885    0.0000 C.2     1  UNL1        0.3348
     40 C          11.3184   -1.4682    0.0000 C.2     1  UNL1        0.3400
     41 C           2.8641    2.3305    0.0000 C.2     1  UNL1        0.3042
     42 C           7.3696    2.7717    0.0000 C.2     1  UNL1        0.0293
     43 C           2.0000    2.8338    0.0000 C.3     1  UNL1        0.0332
     44 C           8.2258    2.2551    0.0000 C.3     1  UNL1       -0.0333
     45 C           7.3888    3.7716    0.0000 C.2     1  UNL1       -0.0774
     46 C           8.2643    4.2548    0.0000 C.3     1  UNL1       -0.0461
     47 H           7.2042   -1.2389    0.0000 H       1  UNL1        0.0340
     48 H           7.3682   -4.1174    0.0000 H       1  UNL1        0.0706
     49 H           4.6681    0.0569    0.0000 H       1  UNL1        0.0340
     50 H           5.0403   -2.6637    0.0000 H       1  UNL1        0.0626
     51 H           6.7972   -0.0039    0.0000 H       1  UNL1        0.0622
     52 H           8.2002   -0.1939    0.0000 H       1  UNL1        0.0626
     53 H           4.5107   -2.6700    0.0000 H       1  UNL1        0.0625
     54 H           9.3268   -2.9633    0.0000 H       1  UNL1        0.0436
     55 H           6.1295    0.4842    0.0000 H       1  UNL1        0.0741
     56 H           5.5436   -2.5416    0.0000 H       1  UNL1        0.0237
     57 H           5.9142   -3.3362    0.0000 H       1  UNL1        0.0237
     58 H           6.7088   -2.9656    0.0000 H       1  UNL1        0.0237
     59 H           9.3762   -1.8508    0.0000 H       1  UNL1        0.0237
     60 H           9.6031   -1.0039    0.0000 H       1  UNL1        0.0237
     61 H           8.7562   -0.7769    0.0000 H       1  UNL1        0.0237
     62 H           3.7279    1.4472    0.0000 H       1  UNL1        0.0741
     63 H           6.7499   -0.3252    0.0000 H       1  UNL1        0.0236
     64 H           6.9834    0.5199    0.0000 H       1  UNL1        0.0236
     65 H           6.1382    0.7534    0.0000 H       1  UNL1        0.0236
     66 H           2.6622   -0.6622    0.0000 H       1  UNL1        0.0567
     67 H           2.6229   -1.4784    0.0000 H       1  UNL1        0.0567
     68 H           5.0727    1.8322    0.0000 H       1  UNL1        0.0337
     69 H           4.2745    1.8414    0.0000 H       1  UNL1        0.0337
     70 H           2.7220    0.3584    0.0000 H       1  UNL1        0.0237
     71 H           2.1043   -0.2640    0.0000 H       1  UNL1        0.0237
     72 H           2.7267   -0.8816    0.0000 H       1  UNL1        0.0237
     73 H           5.0524   -3.6647    0.0000 H       1  UNL1        0.2099
     74 H           7.8711    0.9961    0.0000 H       1  UNL1        0.2099
     75 H           9.0662    0.3061    0.0000 H       1  UNL1        0.2099
     76 H          10.0149   -0.8244    0.0000 H       1  UNL1        0.0694
     77 H           2.3121    3.3696    0.0000 H       1  UNL1        0.0342
     78 H           1.4643    3.1459    0.0000 H       1  UNL1        0.0342
     79 H           1.6879    2.2981    0.0000 H       1  UNL1        0.0342
     80 H           7.9055    1.7243    0.0000 H       1  UNL1        0.0280
     81 H           8.7566    1.9348    0.0000 H       1  UNL1        0.0280
     82 H           8.5461    2.7860    0.0000 H       1  UNL1        0.0280
     83 H           6.8580    4.0918    0.0000 H       1  UNL1        0.0574
     84 H           8.5639    3.7120    0.0000 H       1  UNL1        0.0272
     85 H           8.8071    4.5544    0.0000 H       1  UNL1        0.0272
     86 H           7.9647    4.7976    0.0000 H       1  UNL1        0.0272
@<TRIPOS>BOND
     1    14     1    1
     2     1    19    1
     3     2    24    1
     4     2    33    1
     5    21     3    1
     6     3    73    1
     7    22     4    1
     8     4    74    1
     9    23     5    1
    10     5    75    1
    11    28     6    1
    12     6    39    1
    13     7    27    2
    14    31     8    1
    15     8    41    1
    16     9    38    1
    17     9    40    1
    18    10    38    2
    19    11    39    2
    20    12    40    2
    21    13    41    2
    22    14    15    1
    23    14    17    1
    24    14    19    1
    25    15    16    1
    26    15    21    1
    27    15    29    1
    28    16    18    1
    29    16    22    1
    30    16    47    1
    31    17    23    1
    32    17    25    1
    33    17    30    1
    34    18    20    1
    35    18    28    1
    36    18    32    1
    37    19    27    1
    38    19    48    1
    39    20    24    1
    40    20    26    1
    41    20    49    1
    42    21    24    1
    43    21    50    1
    44    22    23    1
    45    22    51    1
    46    23    52    1
    47    24    53    1
    48    25    27    1
    49    25    35    1
    50    25    54    1
    51    26    31    1
    52    26    33    1
    53    26    36    1
    54    28    34    1
    55    28    55    1
    56    29    56    1
    57    29    57    1
    58    29    58    1
    59    30    59    1
    60    30    60    1
    61    30    61    1
    62    31    34    1
    63    31    62    1
    64    32    63    1
    65    32    64    1
    66    32    65    1
    67    33    66    1
    68    33    67    1
    69    34    68    1
    70    34    69    1
    71    35    37    2
    72    35    38    1
    73    36    70    1
    74    36    71    1
    75    36    72    1
    76    37    40    1
    77    37    76    1
    78    39    42    1
    79    41    43    1
    80    42    44    1
    81    42    45    2
    82    43    77    1
    83    43    78    1
    84    43    79    1
    85    44    80    1
    86    44    81    1
    87    44    82    1
    88    45    46    1
    89    45    83    1
    90    46    84    1
    91    46    85    1
    92    46    86    1
