@<TRIPOS>MOLECULE
IMPHY006078
 32 34 0 0 0
SMALL
GASTEIGER

@<TRIPOS>ATOM
      1 O           6.0682   -0.9254    0.0000 O.3     1  UNL1       -0.4802
      2 O           7.8003    1.0746    0.0000 O.3     1  UNL1       -0.3798
      3 O           6.0682    2.0746    0.0000 O.2     1  UNL1       -0.2889
      4 O           4.3198    2.1092    0.0000 O.3     1  UNL1       -0.5058
      5 O           2.5381   -0.9495    0.0000 O.3     1  UNL1       -0.5065
      6 C           6.9343   -0.4254    0.0000 C.3     1  UNL1        0.1581
      7 C           6.9343    0.5746    0.0000 C.3     1  UNL1        0.1585
      8 C           6.0682    1.0746    0.0000 C.2     1  UNL1        0.2024
      9 C           5.2022    0.5746    0.0000 C.ar    1  UNL1        0.1033
     10 C           7.8003   -0.9254    0.0000 C.ar    1  UNL1       -0.0044
     11 C           5.2022   -0.4254    0.0000 C.ar    1  UNL1        0.1391
     12 C           4.3083    1.1093    0.0000 C.ar    1  UNL1        0.1344
     13 C           4.3083   -0.9601    0.0000 C.ar    1  UNL1        0.0225
     14 C           7.8003   -1.9254    0.0000 C.ar    1  UNL1       -0.0550
     15 C           8.6663   -0.4254    0.0000 C.ar    1  UNL1       -0.0550
     16 C           3.4022    0.5954    0.0000 C.ar    1  UNL1        0.0222
     17 C           3.4022   -0.4462    0.0000 C.ar    1  UNL1        0.1238
     18 C           8.6663   -2.4254    0.0000 C.ar    1  UNL1       -0.0614
     19 C           9.5323   -0.9254    0.0000 C.ar    1  UNL1       -0.0614
     20 C           9.5323   -1.9254    0.0000 C.ar    1  UNL1       -0.0617
     21 H           6.9343   -1.0454    0.0000 H       1  UNL1        0.0815
     22 H           6.9343    1.1946    0.0000 H       1  UNL1        0.0718
     23 H           4.3154   -1.5800    0.0000 H       1  UNL1        0.0691
     24 H           7.2634   -2.2354    0.0000 H       1  UNL1        0.0621
     25 H           8.6663    0.1946    0.0000 H       1  UNL1        0.0621
     26 H           7.8003    1.6946    0.0000 H       1  UNL1        0.2105
     27 H           2.8665    0.9075    0.0000 H       1  UNL1        0.0691
     28 H           8.6663   -3.0454    0.0000 H       1  UNL1        0.0618
     29 H          10.0693   -0.6154    0.0000 H       1  UNL1        0.0618
     30 H          10.0693   -2.2354    0.0000 H       1  UNL1        0.0618
     31 H           3.7865    2.4254    0.0000 H       1  UNL1        0.2922
     32 H           2.0000   -0.6416    0.0000 H       1  UNL1        0.2921
@<TRIPOS>BOND
     1     1     6    1
     2     1    11    1
     3     7     2    1
     4     2    26    1
     5     3     8    2
     6     4    12    1
     7     4    31    1
     8     5    17    1
     9     5    32    1
    10     6     7    1
    11     6    10    1
    12     6    21    1
    13     7     8    1
    14     7    22    1
    15     8     9    1
    16     9    11   ar
    17     9    12   ar
    18    10    14   ar
    19    10    15   ar
    20    11    13   ar
    21    12    16   ar
    22    13    17   ar
    23    13    23    1
    24    14    18   ar
    25    14    24    1
    26    15    19   ar
    27    15    25    1
    28    16    17   ar
    29    16    27    1
    30    18    20   ar
    31    18    28    1
    32    19    20   ar
    33    19    29    1
    34    20    30    1
