@<TRIPOS>MOLECULE
IMPHY007066
 71 75 0 0 0
SMALL
GASTEIGER

@<TRIPOS>ATOM
      1 O           4.9831   -0.1230    0.0000 O.3     1  UNL1       -0.3506
      2 O           5.3492   -2.1618    0.0000 O.3     1  UNL1       -0.4587
      3 O           6.7152    1.8770    0.0000 O.3     1  UNL1       -0.3817
      4 O           3.7435    3.7600    0.0000 O.3     1  UNL1       -0.4575
      5 O           4.0891   -0.9018    0.0000 O.2     1  UNL1       -0.2472
      6 O           8.3428   -0.7154    0.0000 O.2     1  UNL1       -0.2926
      7 O           2.0000    3.9960    0.0000 O.2     1  UNL1       -0.2453
      8 O          11.4022   -3.2779    0.0000 O.2     1  UNL1       -0.2930
      9 C           5.8492    1.3770    0.0000 C.3     1  UNL1        0.1136
     10 C           5.8492   -0.6230    0.0000 C.3     1  UNL1        0.2001
     11 C           4.9831    0.8770    0.0000 C.3     1  UNL1        0.0937
     12 C           6.6582   -1.2108    0.0000 C.3     1  UNL1        0.0435
     13 C           5.9888    2.3478    0.0000 C.3     1  UNL1       -0.0055
     14 C           4.0726    1.2415    0.0000 C.3     1  UNL1       -0.0131
     15 C           3.7873    2.1798    0.0000 C.3     1  UNL1        0.0299
     16 C           6.3492   -2.1618    0.0000 C.3     1  UNL1        0.1103
     17 C           4.3409    2.9895    0.0000 C.3     1  UNL1        0.1108
     18 C           5.3188    3.0641    0.0000 C.3     1  UNL1       -0.0095
     19 C           6.7152   -0.1230    0.0000 C.2     1  UNL1        0.0363
     20 C           6.7152    0.8770    0.0000 C.2     1  UNL1       -0.0403
     21 C           7.5787   -0.8723    0.0000 C.3     1  UNL1       -0.0245
     22 C           5.0402   -1.2108    0.0000 C.2     1  UNL1        0.3448
     23 C           6.8950   -2.9767    0.0000 C.3     1  UNL1       -0.0087
     24 C           6.9428    2.6477    0.0000 C.3     1  UNL1       -0.0593
     25 C           2.8525    2.4569    0.0000 C.2     1  UNL1        0.0362
     26 C           7.8722   -3.0607    0.0000 C.3     1  UNL1       -0.0156
     27 C           8.4187   -1.3788    0.0000 C.2     1  UNL1       -0.0801
     28 C           7.7000    0.0507    0.0000 C.2     1  UNL1        0.1593
     29 C           8.5490   -2.3509    0.0000 C.2     1  UNL1       -0.0482
     30 C           2.8255    3.4316    0.0000 C.2     1  UNL1        0.3353
     31 C           8.2261   -3.9960    0.0000 C.3     1  UNL1       -0.0583
     32 C           2.0595    1.8476    0.0000 C.2     1  UNL1       -0.0883
     33 C           8.0420    0.9903    0.0000 C.3     1  UNL1       -0.0016
     34 C           9.5001   -2.6599    0.0000 C.2     1  UNL1       -0.0553
     35 C          10.2432   -1.9908    0.0000 C.2     1  UNL1       -0.0192
     36 C          11.1943   -2.2998    0.0000 C.2     1  UNL1        0.1530
     37 C          11.9374   -1.6306    0.0000 C.3     1  UNL1       -0.0020
     38 H           4.2792    0.4005    0.0000 H       1  UNL1        0.0629
     39 H           7.2706   -1.8002    0.0000 H       1  UNL1        0.0377
     40 H           6.1465    2.9474    0.0000 H       1  UNL1        0.0331
     41 H           3.4541    1.1982    0.0000 H       1  UNL1        0.0298
     42 H           3.9766    0.6289    0.0000 H       1  UNL1        0.0298
     43 H           3.1883    1.5767    0.0000 H       1  UNL1        0.0388
     44 H           5.9489   -2.9117    0.0000 H       1  UNL1        0.0738
     45 H           4.6856    3.7664    0.0000 H       1  UNL1        0.0740
     46 H           5.8548    3.3758    0.0000 H       1  UNL1        0.0305
     47 H           5.1347    3.6561    0.0000 H       1  UNL1        0.0305
     48 H           7.2521    1.1870    0.0000 H       1  UNL1        0.0606
     49 H           8.0094   -0.4263    0.0000 H       1  UNL1        0.0312
     50 H           7.2402   -0.3529    0.0000 H       1  UNL1        0.0312
     51 H           6.3158   -3.1980    0.0000 H       1  UNL1        0.0307
     52 H           6.9812   -3.5907    0.0000 H       1  UNL1        0.0307
     53 H           7.1287    2.0562    0.0000 H       1  UNL1        0.0233
     54 H           7.5343    2.8336    0.0000 H       1  UNL1        0.0233
     55 H           6.7569    3.2392    0.0000 H       1  UNL1        0.0233
     56 H           7.4982   -3.5552    0.0000 H       1  UNL1        0.0347
     57 H           7.2521    1.5670    0.0000 H       1  UNL1        0.2107
     58 H           8.9370   -1.0386    0.0000 H       1  UNL1        0.0575
     59 H           7.6462   -4.2154    0.0000 H       1  UNL1        0.0236
     60 H           8.4455   -4.5759    0.0000 H       1  UNL1        0.0236
     61 H           8.8059   -3.7766    0.0000 H       1  UNL1        0.0236
     62 H           1.4866    2.0845    0.0000 H       1  UNL1        0.0540
     63 H           2.1409    1.2330    0.0000 H       1  UNL1        0.0540
     64 H           8.6246    0.7783    0.0000 H       1  UNL1        0.0309
     65 H           8.2541    1.5730    0.0000 H       1  UNL1        0.0309
     66 H           7.4594    1.2024    0.0000 H       1  UNL1        0.0309
     67 H           9.6290   -3.2663    0.0000 H       1  UNL1        0.0621
     68 H          10.1143   -1.3843    0.0000 H       1  UNL1        0.0652
     69 H          12.3523   -2.0914    0.0000 H       1  UNL1        0.0309
     70 H          12.3982   -1.2158    0.0000 H       1  UNL1        0.0309
     71 H          11.5225   -1.1699    0.0000 H       1  UNL1        0.0309
@<TRIPOS>BOND
     1    10     1    1
     2     1    11    1
     3     2    16    1
     4     2    22    1
     5     9     3    1
     6     3    57    1
     7     4    17    1
     8     4    30    1
     9     5    22    2
    10     6    28    2
    11     7    30    2
    12     8    36    2
    13     9    11    1
    14     9    13    1
    15     9    20    1
    16    10    12    1
    17    10    19    1
    18    10    22    1
    19    11    14    1
    20    11    38    1
    21    12    16    1
    22    12    21    1
    23    12    39    1
    24    13    18    1
    25    13    24    1
    26    13    40    1
    27    14    15    1
    28    14    41    1
    29    14    42    1
    30    15    17    1
    31    15    25    1
    32    15    43    1
    33    16    23    1
    34    16    44    1
    35    17    18    1
    36    17    45    1
    37    18    46    1
    38    18    47    1
    39    19    20    2
    40    19    28    1
    41    20    48    1
    42    21    27    1
    43    21    49    1
    44    21    50    1
    45    23    26    1
    46    23    51    1
    47    23    52    1
    48    24    53    1
    49    24    54    1
    50    24    55    1
    51    25    30    1
    52    25    32    2
    53    26    29    1
    54    26    31    1
    55    26    56    1
    56    27    29    2
    57    27    58    1
    58    28    33    1
    59    29    34    1
    60    31    59    1
    61    31    60    1
    62    31    61    1
    63    32    62    1
    64    32    63    1
    65    33    64    1
    66    33    65    1
    67    33    66    1
    68    34    35    2
    69    34    67    1
    70    35    36    1
    71    35    68    1
    72    36    37    1
    73    37    69    1
    74    37    70    1
    75    37    71    1
