@<TRIPOS>MOLECULE
IMPHY000388
 68 71 0 0 0
SMALL
GASTEIGER

@<TRIPOS>ATOM
      1 O           6.8671    2.5000    0.0000 O.3     1  UNL1       -0.3084
      2 O           6.0010    4.0000    0.0000 O.2     1  UNL1       -0.4710
      3 O          10.2629    4.5000    0.0000 O.3     1  UNL1       -0.3915
      4 O           5.1350    2.5000    0.0000 O.3     1  UNL1       -0.3394
      5 O           6.8671    0.5000    0.0000 O.3     1  UNL1       -0.4504
      6 O           5.1350   -0.5000    0.0000 O.3     1  UNL1       -0.3853
      7 O           3.4030    0.5000    0.0000 O.3     1  UNL1       -0.3864
      8 O           2.5369    2.0000    0.0000 O.3     1  UNL1       -0.3924
      9 O           6.0010   -1.0000    0.0000 O.2     1  UNL1       -0.2456
     10 O           9.4651   -5.0000    0.0000 O.3     1  UNL1       -0.4914
     11 O          11.1972   -4.0000    0.0000 O.3     1  UNL1       -0.5033
     12 C           7.7331    4.0000    0.0000 C.3     1  UNL1        0.0330
     13 C           8.6793    3.6953    0.0000 C.3     1  UNL1       -0.0087
     14 C           7.7331    5.0000    0.0000 C.3     1  UNL1       -0.0086
     15 C           9.2629    4.5000    0.0000 C.3     1  UNL1        0.0588
     16 C           8.6793    5.3047    0.0000 C.3     1  UNL1       -0.0198
     17 C           6.8671    3.5000    0.0000 C.3     1  UNL1        0.2071
     18 C           8.9900    2.7447    0.0000 C.3     1  UNL1       -0.0596
     19 C           6.8671    5.5000    0.0000 C.2     1  UNL1       -0.0459
     20 C           6.0010    2.0000    0.0000 C.3     1  UNL1        0.2029
     21 C           6.0010    5.0000    0.0000 C.2     1  UNL1        0.0842
     22 C           6.0010    1.0000    0.0000 C.3     1  UNL1        0.1820
     23 C           5.1350    0.5000    0.0000 C.3     1  UNL1        0.1251
     24 C           4.2690    1.0000    0.0000 C.3     1  UNL1        0.1130
     25 C           4.2690    2.0000    0.0000 C.3     1  UNL1        0.1131
     26 C           3.4030    2.5000    0.0000 C.3     1  UNL1        0.0730
     27 C           6.8671   -0.5000    0.0000 C.2     1  UNL1        0.3324
     28 C           7.7331   -1.0000    0.0000 C.2     1  UNL1        0.0231
     29 C           7.7331   -2.0000    0.0000 C.2     1  UNL1       -0.0477
     30 C           8.5991   -2.5000    0.0000 C.ar    1  UNL1       -0.0211
     31 C           8.5991   -3.5000    0.0000 C.ar    1  UNL1       -0.0092
     32 C           9.4651   -2.0000    0.0000 C.ar    1  UNL1       -0.0509
     33 C           9.4651   -4.0000    0.0000 C.ar    1  UNL1        0.1618
     34 C          10.3312   -2.5000    0.0000 C.ar    1  UNL1       -0.0160
     35 C          10.3312   -3.5000    0.0000 C.ar    1  UNL1        0.1585
     36 C           8.5991   -5.5000    0.0000 C.3     1  UNL1        0.0790
     37 H           7.8230    3.1548    0.0000 H       1  UNL1        0.0370
     38 H           8.2418    3.2559    0.0000 H       1  UNL1        0.0328
     39 H           7.8230    5.8452    0.0000 H       1  UNL1        0.0350
     40 H           9.5446    3.9477    0.0000 H       1  UNL1        0.0596
     41 H           9.2167    5.6140    0.0000 H       1  UNL1        0.0296
     42 H           8.4283    5.8716    0.0000 H       1  UNL1        0.0296
     43 H           7.4040    3.1900    0.0000 H       1  UNL1        0.1059
     44 H           8.4006    2.5521    0.0000 H       1  UNL1        0.0233
     45 H           9.1826    2.1554    0.0000 H       1  UNL1        0.0233
     46 H           9.5793    2.9374    0.0000 H       1  UNL1        0.0233
     47 H           6.8671    6.1200    0.0000 H       1  UNL1        0.0605
     48 H           6.0010    2.6200    0.0000 H       1  UNL1        0.0951
     49 H           5.4641    5.3100    0.0000 H       1  UNL1        0.1021
     50 H          10.5729    5.0369    0.0000 H       1  UNL1        0.2098
     51 H           6.0010    0.3800    0.0000 H       1  UNL1        0.0813
     52 H           4.5981    0.1900    0.0000 H       1  UNL1        0.0659
     53 H           3.7320    1.3100    0.0000 H       1  UNL1        0.0647
     54 H           4.2690    2.6200    0.0000 H       1  UNL1        0.0647
     55 H           3.8015    2.9750    0.0000 H       1  UNL1        0.0584
     56 H           3.0044    2.9750    0.0000 H       1  UNL1        0.0584
     57 H           4.5981   -0.8100    0.0000 H       1  UNL1        0.2101
     58 H           3.4030   -0.1200    0.0000 H       1  UNL1        0.2100
     59 H           2.0000    2.3100    0.0000 H       1  UNL1        0.2095
     60 H           8.2700   -0.6900    0.0000 H       1  UNL1        0.0689
     61 H           7.1962   -2.3100    0.0000 H       1  UNL1        0.0626
     62 H           8.0622   -3.8100    0.0000 H       1  UNL1        0.0661
     63 H           9.4651   -1.3800    0.0000 H       1  UNL1        0.0625
     64 H          10.8681   -2.1900    0.0000 H       1  UNL1        0.0655
     65 H          11.7341   -3.6900    0.0000 H       1  UNL1        0.2923
     66 H           8.2891   -4.9631    0.0000 H       1  UNL1        0.0660
     67 H           8.0622   -5.8100    0.0000 H       1  UNL1        0.0660
     68 H           8.9091   -6.0369    0.0000 H       1  UNL1        0.0660
@<TRIPOS>BOND
     1    17     1    1
     2    20     1    1
     3     2    17    1
     4     2    21    1
     5    15     3    1
     6     3    50    1
     7     4    20    1
     8     4    25    1
     9    22     5    1
    10     5    27    1
    11    23     6    1
    12     6    57    1
    13    24     7    1
    14     7    58    1
    15     8    26    1
    16     8    59    1
    17     9    27    2
    18    10    33    1
    19    10    36    1
    20    11    35    1
    21    11    65    1
    22    12    13    1
    23    12    14    1
    24    12    17    1
    25    12    37    1
    26    13    15    1
    27    13    18    1
    28    13    38    1
    29    14    16    1
    30    14    19    1
    31    14    39    1
    32    15    16    1
    33    15    40    1
    34    16    41    1
    35    16    42    1
    36    17    43    1
    37    18    44    1
    38    18    45    1
    39    18    46    1
    40    19    21    2
    41    19    47    1
    42    20    22    1
    43    20    48    1
    44    21    49    1
    45    22    23    1
    46    22    51    1
    47    23    24    1
    48    23    52    1
    49    24    25    1
    50    24    53    1
    51    25    26    1
    52    25    54    1
    53    26    55    1
    54    26    56    1
    55    27    28    1
    56    28    29    2
    57    28    60    1
    58    29    30    1
    59    29    61    1
    60    30    31   ar
    61    30    32   ar
    62    31    33   ar
    63    31    62    1
    64    32    34   ar
    65    32    63    1
    66    33    35   ar
    67    34    35   ar
    68    34    64    1
    69    36    66    1
    70    36    67    1
    71    36    68    1
