@<TRIPOS>MOLECULE
IMPHY001517
 27 27 0 0 0
SMALL
GASTEIGER

@<TRIPOS>ATOM
      1 O           3.7320    2.5000    0.0000 O.2     1  UNL1       -0.3007
      2 C           2.8660    1.0000    0.0000 C.3     1  UNL1        0.0182
      3 C           2.0000    0.5000    0.0000 C.3     1  UNL1       -0.0398
      4 C           2.0000   -0.5000    0.0000 C.3     1  UNL1       -0.0309
      5 C           2.8660   -1.0000    0.0000 C.2     1  UNL1       -0.0708
      6 C           3.7320    0.5000    0.0000 C.3     1  UNL1       -0.0252
      7 C           2.8660   -2.0000    0.0000 C.3     1  UNL1       -0.0256
      8 C           3.7320   -0.5000    0.0000 C.2     1  UNL1       -0.0839
      9 C           2.0000   -2.5000    0.0000 C.3     1  UNL1       -0.0590
     10 C           3.7320   -2.5000    0.0000 C.3     1  UNL1       -0.0590
     11 C           2.8660    2.0000    0.0000 C.2     1  UNL1        0.1237
     12 H           3.4030    1.3100    0.0000 H       1  UNL1        0.0378
     13 H           1.7880    1.0826    0.0000 H       1  UNL1        0.0275
     14 H           1.3894    0.3923    0.0000 H       1  UNL1        0.0275
     15 H           1.3894   -0.3923    0.0000 H       1  UNL1        0.0310
     16 H           1.7880   -1.0826    0.0000 H       1  UNL1        0.0310
     17 H           4.3426    0.3923    0.0000 H       1  UNL1        0.0314
     18 H           3.9441    1.0826    0.0000 H       1  UNL1        0.0314
     19 H           2.8660   -2.6200    0.0000 H       1  UNL1        0.0340
     20 H           4.2690   -0.8100    0.0000 H       1  UNL1        0.0572
     21 H           1.6900   -1.9631    0.0000 H       1  UNL1        0.0235
     22 H           1.4631   -2.8100    0.0000 H       1  UNL1        0.0235
     23 H           2.3100   -3.0369    0.0000 H       1  UNL1        0.0235
     24 H           3.4220   -3.0369    0.0000 H       1  UNL1        0.0235
     25 H           4.2690   -2.8100    0.0000 H       1  UNL1        0.0235
     26 H           4.0420   -1.9631    0.0000 H       1  UNL1        0.0235
     27 H           2.3291    2.3100    0.0000 H       1  UNL1        0.1029
@<TRIPOS>BOND
     1     1    11    2
     2     2     3    1
     3     2     6    1
     4     2    11    1
     5     2    12    1
     6     3     4    1
     7     3    13    1
     8     3    14    1
     9     4     5    1
    10     4    15    1
    11     4    16    1
    12     5     7    1
    13     5     8    2
    14     6     8    1
    15     6    17    1
    16     6    18    1
    17     7     9    1
    18     7    10    1
    19     7    19    1
    20     8    20    1
    21     9    21    1
    22     9    22    1
    23     9    23    1
    24    10    24    1
    25    10    25    1
    26    10    26    1
    27    11    27    1
