@<TRIPOS>MOLECULE
IMPHY008259
 156 164 0 0 0
SMALL
GASTEIGER

@<TRIPOS>ATOM
      1 O           7.8620    3.7679    0.0000 O.3     1  UNL1       -0.3449
      2 O           6.0010   -5.4906    0.0000 O.3     1  UNL1       -0.4318
      3 O           5.1350   -3.9906    0.0000 O.2     1  UNL1       -0.2501
      4 O           8.7453    5.2578    0.0000 O.3     1  UNL1       -0.3461
      5 O           9.5824    2.7479    0.0000 O.3     1  UNL1       -0.3377
      6 O           4.2690   -5.4906    0.0000 O.3     1  UNL1       -0.3312
      7 O          11.4484    4.0528    0.0000 O.3     1  UNL1       -0.3401
      8 O          10.9873    6.0979    0.0000 O.3     1  UNL1       -0.3868
      9 O           6.0010   -7.4906    0.0000 O.3     1  UNL1       -0.3829
     10 O          11.3143    2.7279    0.0000 O.3     1  UNL1       -0.3405
     11 O           4.2690   -8.4906    0.0000 O.3     1  UNL1       -0.3864
     12 O           2.5369   -7.4906    0.0000 O.3     1  UNL1       -0.3865
     13 O          11.7689    5.7549    0.0000 O.3     1  UNL1       -0.3405
     14 O           9.5593    0.7481    0.0000 O.3     1  UNL1       -0.3841
     15 O           2.5369   -4.4906    0.0000 O.3     1  UNL1       -0.3924
     16 O          11.2796   -0.2719    0.0000 O.3     1  UNL1       -0.3864
     17 O          13.4139    3.6827    0.0000 O.3     1  UNL1       -0.3841
     18 O          13.0231    0.7080    0.0000 O.3     1  UNL1       -0.3865
     19 O          14.7171    5.1998    0.0000 O.3     1  UNL1       -0.3864
     20 O          14.0549    7.0870    0.0000 O.3     1  UNL1       -0.3865
     21 O          13.7952    1.6067    0.0000 O.3     1  UNL1       -0.3924
     22 O          12.7410    8.2156    0.0000 O.3     1  UNL1       -0.3924
     23 C           6.9067   -0.9216    0.0000 C.3     1  UNL1       -0.0194
     24 C           7.8006    0.6131    0.0000 C.3     1  UNL1       -0.0250
     25 C           7.7765   -0.4283    0.0000 C.3     1  UNL1       -0.0257
     26 C           6.8990   -1.9216    0.0000 C.3     1  UNL1       -0.0051
     27 C           6.9067    1.1477    0.0000 C.3     1  UNL1       -0.0278
     28 C           6.0006   -0.4078    0.0000 C.3     1  UNL1       -0.0463
     29 C           6.9067    2.2327    0.0000 C.3     1  UNL1       -0.0052
     30 C           6.0006    0.6339    0.0000 C.3     1  UNL1       -0.0486
     31 C           8.7565    1.1263    0.0000 C.3     1  UNL1       -0.0447
     32 C           7.7611   -2.4282    0.0000 C.2     1  UNL1       -0.0626
     33 C           8.6387   -0.9350    0.0000 C.3     1  UNL1       -0.0306
     34 C           5.9851   -2.4214    0.0000 C.3     1  UNL1       -0.0424
     35 C           7.7691   -3.4698    0.0000 C.3     1  UNL1        0.0000
     36 C           7.8505    2.7680    0.0000 C.3     1  UNL1        0.0672
     37 C           6.8671   -3.9906    0.0000 C.3     1  UNL1        0.0749
     38 C           5.9206   -1.0876    0.0000 C.3     1  UNL1       -0.0585
     39 C           8.6588    0.0998    0.0000 C.3     1  UNL1       -0.0590
     40 C           8.7816    2.2110    0.0000 C.3     1  UNL1       -0.0255
     41 C           8.6310   -1.9349    0.0000 C.2     1  UNL1       -0.0836
     42 C           5.9690   -3.4629    0.0000 C.3     1  UNL1       -0.0359
     43 C           5.9155   -1.7403    0.0000 C.3     1  UNL1       -0.0553
     44 C           6.4100    3.1007    0.0000 C.3     1  UNL1       -0.0572
     45 C           5.9067    2.2366    0.0000 C.3     1  UNL1       -0.0572
     46 C           8.7170   -3.9978    0.0000 C.3     1  UNL1       -0.0244
     47 C           6.8503   -5.0755    0.0000 C.3     1  UNL1       -0.0330
     48 C           6.0010   -4.4906    0.0000 C.2     1  UNL1        0.3162
     49 C           7.7858   -5.6252    0.0000 C.3     1  UNL1       -0.0310
     50 C           8.7254   -5.0828    0.0000 C.2     1  UNL1       -0.0760
     51 C           8.7338    4.2578    0.0000 C.3     1  UNL1        0.1882
     52 C           9.5933   -5.5794    0.0000 C.2     1  UNL1       -0.0994
     53 C           9.5940    3.7478    0.0000 C.3     1  UNL1        0.1410
     54 C           5.1350   -5.9906    0.0000 C.3     1  UNL1        0.2337
     55 C          10.4657    4.2378    0.0000 C.3     1  UNL1        0.1206
     56 C           9.6171    5.7477    0.0000 C.3     1  UNL1        0.0792
     57 C          10.4773    5.2377    0.0000 C.3     1  UNL1        0.1073
     58 C           5.1350   -6.9906    0.0000 C.3     1  UNL1        0.1455
     59 C           4.2690   -7.4906    0.0000 C.3     1  UNL1        0.1152
     60 C          10.4426    2.2379    0.0000 C.3     1  UNL1        0.1885
     61 C           3.4030   -5.9906    0.0000 C.3     1  UNL1        0.1140
     62 C           3.4030   -6.9906    0.0000 C.3     1  UNL1        0.1120
     63 C          12.1000    4.8113    0.0000 C.3     1  UNL1        0.1884
     64 C          10.4310    1.2380    0.0000 C.3     1  UNL1        0.1341
     65 C           2.5369   -5.4906    0.0000 C.3     1  UNL1        0.0731
     66 C          11.2912    0.7280    0.0000 C.3     1  UNL1        0.1141
     67 C          13.0828    4.6263    0.0000 C.3     1  UNL1        0.1341
     68 C          12.1745    2.2179    0.0000 C.3     1  UNL1        0.1130
     69 C          12.1630    1.2180    0.0000 C.3     1  UNL1        0.1119
     70 C          13.7344    5.3849    0.0000 C.3     1  UNL1        0.1141
     71 C          12.4205    6.5135    0.0000 C.3     1  UNL1        0.1130
     72 C          13.4033    6.3285    0.0000 C.3     1  UNL1        0.1119
     73 C          13.1613    2.3802    0.0000 C.3     1  UNL1        0.0730
     74 C          12.0894    7.4571    0.0000 C.3     1  UNL1        0.0730
     75 H           8.5191   -0.0147    0.0000 H       1  UNL1        0.0315
     76 H           6.1722    1.5756    0.0000 H       1  UNL1        0.0312
     77 H           5.3898   -0.3017    0.0000 H       1  UNL1        0.0271
     78 H           5.7916   -0.9915    0.0000 H       1  UNL1        0.0271
     79 H           5.7916    1.2176    0.0000 H       1  UNL1        0.0268
     80 H           5.3898    0.5278    0.0000 H       1  UNL1        0.0268
     81 H           8.9520    0.5380    0.0000 H       1  UNL1        0.0271
     82 H           9.3697    1.2183    0.0000 H       1  UNL1        0.0271
     83 H           9.2484   -1.0473    0.0000 H       1  UNL1        0.0310
     84 H           8.8552   -0.3540    0.0000 H       1  UNL1        0.0310
     85 H           5.7850   -1.8346    0.0000 H       1  UNL1        0.0274
     86 H           5.3727   -2.5181    0.0000 H       1  UNL1        0.0274
     87 H           8.5003   -3.0364    0.0000 H       1  UNL1        0.0359
     88 H           7.3165    3.0831    0.0000 H       1  UNL1        0.0602
     89 H           5.8176   -0.4762    0.0000 H       1  UNL1        0.0235
     90 H           5.3092   -1.1906    0.0000 H       1  UNL1        0.0235
     91 H           6.0235   -1.6990    0.0000 H       1  UNL1        0.0235
     92 H           8.3406   -0.4323    0.0000 H       1  UNL1        0.0235
     93 H           9.1909   -0.2185    0.0000 H       1  UNL1        0.0235
     94 H           8.9771    0.6319    0.0000 H       1  UNL1        0.0235
     95 H           9.3899    2.0908    0.0000 H       1  UNL1        0.0290
     96 H           9.0041    2.7897    0.0000 H       1  UNL1        0.0290
     97 H           9.1655   -2.2491    0.0000 H       1  UNL1        0.0572
     98 H           5.3599   -3.3474    0.0000 H       1  UNL1        0.0276
     99 H           5.7510   -4.0433    0.0000 H       1  UNL1        0.0276
    100 H           6.0279   -1.1306    0.0000 H       1  UNL1        0.0238
    101 H           5.3058   -1.6280    0.0000 H       1  UNL1        0.0238
    102 H           5.8032   -2.3501    0.0000 H       1  UNL1        0.0238
    103 H           5.9091    2.8566    0.0000 H       1  UNL1        0.0236
    104 H           6.9481    3.4086    0.0000 H       1  UNL1        0.0236
    105 H           6.1021    3.6388    0.0000 H       1  UNL1        0.0236
    106 H           5.8719    2.7927    0.0000 H       1  UNL1        0.0236
    107 H           5.2867    2.2390    0.0000 H       1  UNL1        0.0236
    108 H           5.9043    1.6166    0.0000 H       1  UNL1        0.0236
    109 H           9.3287   -4.0992    0.0000 H       1  UNL1        0.0316
    110 H           8.9216   -3.4125    0.0000 H       1  UNL1        0.0316
    111 H           6.2412   -4.9600    0.0000 H       1  UNL1        0.0279
    112 H           6.6323   -5.6559    0.0000 H       1  UNL1        0.0279
    113 H           7.3848   -6.0981    0.0000 H       1  UNL1        0.0310
    114 H           8.1831   -6.1012    0.0000 H       1  UNL1        0.0310
    115 H           8.2005    4.5740    0.0000 H       1  UNL1        0.0937
    116 H           9.5957   -6.1994    0.0000 H       1  UNL1        0.0534
    117 H          10.1291   -5.2673    0.0000 H       1  UNL1        0.0534
    118 H          10.1273    3.4317    0.0000 H       1  UNL1        0.0675
    119 H           5.1350   -5.3707    0.0000 H       1  UNL1        0.1085
    120 H          10.5663    3.6260    0.0000 H       1  UNL1        0.0651
    121 H          10.0211    6.2180    0.0000 H       1  UNL1        0.0587
    122 H           9.2241    6.2272    0.0000 H       1  UNL1        0.0587
    123 H          11.0743    5.0704    0.0000 H       1  UNL1        0.0643
    124 H           5.1350   -7.6106    0.0000 H       1  UNL1        0.0683
    125 H           3.7320   -7.8006    0.0000 H       1  UNL1        0.0648
    126 H          10.4498    2.8579    0.0000 H       1  UNL1        0.0938
    127 H           3.4030   -5.3707    0.0000 H       1  UNL1        0.0647
    128 H           2.8660   -6.6806    0.0000 H       1  UNL1        0.0647
    129 H          10.6835    6.6384    0.0000 H       1  UNL1        0.2100
    130 H          12.3053    4.2263    0.0000 H       1  UNL1        0.0938
    131 H          10.4239    0.6180    0.0000 H       1  UNL1        0.0671
    132 H           6.5380   -7.1806    0.0000 H       1  UNL1        0.2102
    133 H           1.9264   -5.3830    0.0000 H       1  UNL1        0.0584
    134 H           2.3249   -6.0733    0.0000 H       1  UNL1        0.0584
    135 H          11.8245    0.4118    0.0000 H       1  UNL1        0.0648
    136 H          13.6921    4.5116    0.0000 H       1  UNL1        0.0671
    137 H           3.7320   -8.8006    0.0000 H       1  UNL1        0.2100
    138 H          12.2892    2.8272    0.0000 H       1  UNL1        0.0647
    139 H          12.7034    1.5218    0.0000 H       1  UNL1        0.0647
    140 H           2.0000   -7.1806    0.0000 H       1  UNL1        0.2100
    141 H          14.1384    5.8552    0.0000 H       1  UNL1        0.0648
    142 H          11.8112    6.6282    0.0000 H       1  UNL1        0.0647
    143 H           9.5521    0.1281    0.0000 H       1  UNL1        0.2101
    144 H          13.1980    6.9135    0.0000 H       1  UNL1        0.0647
    145 H          13.7018    2.6839    0.0000 H       1  UNL1        0.0584
    146 H          12.9560    2.9652    0.0000 H       1  UNL1        0.0584
    147 H           2.0000   -4.1806    0.0000 H       1  UNL1        0.2095
    148 H          11.8130   -0.5881    0.0000 H       1  UNL1        0.2100
    149 H          14.0232    3.5680    0.0000 H       1  UNL1        0.2101
    150 H          13.0160    0.0880    0.0000 H       1  UNL1        0.2100
    151 H          11.6964    7.9366    0.0000 H       1  UNL1        0.0584
    152 H          11.5489    7.1533    0.0000 H       1  UNL1        0.0584
    153 H          15.1211    5.6702    0.0000 H       1  UNL1        0.2100
    154 H          14.6641    6.9723    0.0000 H       1  UNL1        0.2100
    155 H          14.4069    1.7073    0.0000 H       1  UNL1        0.2095
    156 H          12.5357    8.8006    0.0000 H       1  UNL1        0.2095
@<TRIPOS>BOND
     1    36     1    1
     2    51     1    1
     3     2    48    1
     4    54     2    1
     5     3    48    2
     6     4    51    1
     7     4    56    1
     8    53     5    1
     9    60     5    1
    10     6    54    1
    11     6    61    1
    12    55     7    1
    13    63     7    1
    14    57     8    1
    15     8   129    1
    16    58     9    1
    17     9   132    1
    18    10    60    1
    19    10    68    1
    20    59    11    1
    21    11   137    1
    22    62    12    1
    23    12   140    1
    24    13    63    1
    25    13    71    1
    26    64    14    1
    27    14   143    1
    28    15    65    1
    29    15   147    1
    30    66    16    1
    31    16   148    1
    32    67    17    1
    33    17   149    1
    34    69    18    1
    35    18   150    1
    36    70    19    1
    37    19   153    1
    38    72    20    1
    39    20   154    1
    40    21    73    1
    41    21   155    1
    42    22    74    1
    43    22   156    1
    44    23    25    1
    45    23    26    1
    46    23    28    1
    47    23    38    1
    48    24    25    1
    49    24    27    1
    50    24    31    1
    51    24    39    1
    52    25    33    1
    53    25    75    1
    54    26    32    1
    55    26    34    1
    56    26    43    1
    57    27    29    1
    58    27    30    1
    59    27    76    1
    60    28    30    1
    61    28    77    1
    62    28    78    1
    63    29    36    1
    64    29    44    1
    65    29    45    1
    66    30    79    1
    67    30    80    1
    68    31    40    1
    69    31    81    1
    70    31    82    1
    71    32    35    1
    72    32    41    2
    73    33    41    1
    74    33    83    1
    75    33    84    1
    76    34    42    1
    77    34    85    1
    78    34    86    1
    79    35    37    1
    80    35    46    1
    81    35    87    1
    82    36    40    1
    83    36    88    1
    84    37    42    1
    85    37    47    1
    86    37    48    1
    87    38    89    1
    88    38    90    1
    89    38    91    1
    90    39    92    1
    91    39    93    1
    92    39    94    1
    93    40    95    1
    94    40    96    1
    95    41    97    1
    96    42    98    1
    97    42    99    1
    98    43   100    1
    99    43   101    1
   100    43   102    1
   101    44   104    1
   102    44   105    1
   103    44   106    1
   104    45   103    1
   105    45   107    1
   106    45   108    1
   107    46    50    1
   108    46   109    1
   109    46   110    1
   110    47    49    1
   111    47   111    1
   112    47   112    1
   113    49    50    1
   114    49   113    1
   115    49   114    1
   116    50    52    2
   117    51    53    1
   118    51   115    1
   119    52   116    1
   120    52   117    1
   121    53    55    1
   122    53   118    1
   123    54    58    1
   124    54   119    1
   125    55    57    1
   126    55   120    1
   127    56    57    1
   128    56   121    1
   129    56   122    1
   130    57   123    1
   131    58    59    1
   132    58   124    1
   133    59    62    1
   134    59   125    1
   135    60    64    1
   136    60   126    1
   137    61    62    1
   138    61    65    1
   139    61   127    1
   140    62   128    1
   141    63    67    1
   142    63   130    1
   143    64    66    1
   144    64   131    1
   145    65   133    1
   146    65   134    1
   147    66    69    1
   148    66   135    1
   149    67    70    1
   150    67   136    1
   151    68    69    1
   152    68    73    1
   153    68   138    1
   154    69   139    1
   155    70    72    1
   156    70   141    1
   157    71    72    1
   158    71    74    1
   159    71   142    1
   160    72   144    1
   161    73   145    1
   162    73   146    1
   163    74   151    1
   164    74   152    1
