@<TRIPOS>MOLECULE
IMPHY010990
 99 103 0 0 0
SMALL
GASTEIGER

@<TRIPOS>ATOM
      1 O           6.8671   -4.4699    0.0000 O.3     1  UNL1       -0.3454
      2 O           5.1350   -4.4699    0.0000 O.3     1  UNL1       -0.3405
      3 O           6.8671   -6.4699    0.0000 O.3     1  UNL1       -0.3841
      4 O           5.1350   -7.4699    0.0000 O.3     1  UNL1       -0.3864
      5 O           3.4030   -6.4699    0.0000 O.3     1  UNL1       -0.3865
      6 O           2.5369   -4.9699    0.0000 O.3     1  UNL1       -0.3924
      7 C           6.8963    1.7270    0.0000 C.3     1  UNL1       -0.0222
      8 C           7.7643    1.2303    0.0000 C.3     1  UNL1       -0.0139
      9 C           6.9040   -0.2730    0.0000 C.3     1  UNL1       -0.0139
     10 C           6.8920   -1.3146    0.0000 C.3     1  UNL1       -0.0223
     11 C           7.1018    2.6996    0.0000 C.3     1  UNL1       -0.0291
     12 C           7.7681    0.2303    0.0000 C.2     1  UNL1       -0.0662
     13 C           6.0322    1.2236    0.0000 C.3     1  UNL1       -0.0463
     14 C           7.7920   -1.8389    0.0000 C.3     1  UNL1       -0.0293
     15 C           6.0361    0.2237    0.0000 C.3     1  UNL1       -0.0455
     16 C           8.4987    1.9002    0.0000 C.3     1  UNL1       -0.0457
     17 C           8.0901    2.8065    0.0000 C.3     1  UNL1       -0.0486
     18 C           5.9421   -1.8389    0.0000 C.3     1  UNL1       -0.0445
     19 C           8.6921   -1.3146    0.0000 C.3     1  UNL1       -0.0311
     20 C           6.0284    2.2236    0.0000 C.3     1  UNL1       -0.0587
     21 C           8.6801   -0.2730    0.0000 C.2     1  UNL1       -0.0839
     22 C           7.8046   -2.9238    0.0000 C.3     1  UNL1       -0.0229
     23 C           6.4311    3.4413    0.0000 C.3     1  UNL1       -0.0224
     24 C           6.0279   -0.8112    0.0000 C.3     1  UNL1       -0.0588
     25 C           5.9295   -2.9238    0.0000 C.3     1  UNL1       -0.0260
     26 C           6.8671   -3.4699    0.0000 C.3     1  UNL1        0.0621
     27 C           5.4534    3.2313    0.0000 C.3     1  UNL1       -0.0587
     28 C           6.7381    4.3930    0.0000 C.2     1  UNL1       -0.0845
     29 C           6.0010   -4.9699    0.0000 C.3     1  UNL1        0.1882
     30 C           6.0674    5.1348    0.0000 C.2     1  UNL1       -0.0843
     31 C           6.3744    6.0865    0.0000 C.3     1  UNL1       -0.0208
     32 C           6.0010   -5.9699    0.0000 C.3     1  UNL1        0.1341
     33 C           5.1350   -6.4699    0.0000 C.3     1  UNL1        0.1141
     34 C           4.2690   -4.9699    0.0000 C.3     1  UNL1        0.1130
     35 C           5.7036    6.8282    0.0000 C.3     1  UNL1       -0.0405
     36 C           4.2690   -5.9699    0.0000 C.3     1  UNL1        0.1119
     37 C           7.3521    6.2964    0.0000 C.3     1  UNL1       -0.0494
     38 C           3.4030   -4.4699    0.0000 C.3     1  UNL1        0.0730
     39 C           6.0106    7.7799    0.0000 C.3     1  UNL1       -0.0621
     40 C           4.7259    6.6182    0.0000 C.3     1  UNL1       -0.0621
     41 C           7.6591    7.2482    0.0000 C.3     1  UNL1       -0.0647
     42 H           8.5426    0.8886    0.0000 H       1  UNL1        0.0351
     43 H           7.6385   -0.7008    0.0000 H       1  UNL1        0.0351
     44 H           7.4044    3.4939    0.0000 H       1  UNL1        0.0312
     45 H           5.8179    1.8054    0.0000 H       1  UNL1        0.0271
     46 H           5.4221    1.1136    0.0000 H       1  UNL1        0.0271
     47 H           8.5314   -2.2582    0.0000 H       1  UNL1        0.0310
     48 H           5.4251    0.3290    0.0000 H       1  UNL1        0.0271
     49 H           5.8263   -0.3598    0.0000 H       1  UNL1        0.0271
     50 H           8.8661    1.4008    0.0000 H       1  UNL1        0.0271
     51 H           9.0340    2.2131    0.0000 H       1  UNL1        0.0271
     52 H           8.6790    3.0005    0.0000 H       1  UNL1        0.0268
     53 H           7.9590    3.4124    0.0000 H       1  UNL1        0.0268
     54 H           5.7398   -1.2528    0.0000 H       1  UNL1        0.0272
     55 H           5.3300   -1.9379    0.0000 H       1  UNL1        0.0272
     56 H           8.9079   -1.8958    0.0000 H       1  UNL1        0.0310
     57 H           9.3017   -1.2014    0.0000 H       1  UNL1        0.0310
     58 H           6.3363    2.7618    0.0000 H       1  UNL1        0.0235
     59 H           5.4902    2.5316    0.0000 H       1  UNL1        0.0235
     60 H           5.7204    1.6855    0.0000 H       1  UNL1        0.0235
     61 H           9.2122    0.0452    0.0000 H       1  UNL1        0.0572
     62 H           8.0204   -3.5050    0.0000 H       1  UNL1        0.0293
     63 H           8.4142   -2.8106    0.0000 H       1  UNL1        0.0293
     64 H           6.0152    3.9012    0.0000 H       1  UNL1        0.0343
     65 H           6.3400   -0.2755    0.0000 H       1  UNL1        0.0235
     66 H           5.4922   -0.4992    0.0000 H       1  UNL1        0.0235
     67 H           5.7158   -1.3470    0.0000 H       1  UNL1        0.0235
     68 H           5.3199   -2.8106    0.0000 H       1  UNL1        0.0290
     69 H           5.7137   -3.5050    0.0000 H       1  UNL1        0.0290
     70 H           7.4046   -3.7789    0.0000 H       1  UNL1        0.0597
     71 H           5.3232    3.8375    0.0000 H       1  UNL1        0.0235
     72 H           4.8472    3.1011    0.0000 H       1  UNL1        0.0235
     73 H           5.5836    2.6252    0.0000 H       1  UNL1        0.0235
     74 H           7.3442    4.5232    0.0000 H       1  UNL1        0.0572
     75 H           6.0010   -4.3499    0.0000 H       1  UNL1        0.0937
     76 H           5.4612    5.0046    0.0000 H       1  UNL1        0.0572
     77 H           6.5647    6.6765    0.0000 H       1  UNL1        0.0345
     78 H           6.0010   -6.5899    0.0000 H       1  UNL1        0.0671
     79 H           4.5981   -6.7799    0.0000 H       1  UNL1        0.0648
     80 H           4.2690   -4.3499    0.0000 H       1  UNL1        0.0647
     81 H           5.5133    6.2381    0.0000 H       1  UNL1        0.0301
     82 H           4.2690   -6.5899    0.0000 H       1  UNL1        0.0647
     83 H           7.3750    5.6769    0.0000 H       1  UNL1        0.0268
     84 H           7.9662    6.2115    0.0000 H       1  UNL1        0.0268
     85 H           6.8671   -7.0899    0.0000 H       1  UNL1        0.2101
     86 H           3.8015   -3.9950    0.0000 H       1  UNL1        0.0584
     87 H           3.0044   -3.9950    0.0000 H       1  UNL1        0.0584
     88 H           6.6007    7.5896    0.0000 H       1  UNL1        0.0233
     89 H           6.2010    8.3700    0.0000 H       1  UNL1        0.0233
     90 H           5.4206    7.9702    0.0000 H       1  UNL1        0.0233
     91 H           4.5958    7.2244    0.0000 H       1  UNL1        0.0233
     92 H           4.1198    6.4880    0.0000 H       1  UNL1        0.0233
     93 H           4.8561    6.0120    0.0000 H       1  UNL1        0.0233
     94 H           8.2491    7.0578    0.0000 H       1  UNL1        0.0230
     95 H           7.8494    7.8382    0.0000 H       1  UNL1        0.0230
     96 H           7.0690    7.4385    0.0000 H       1  UNL1        0.0230
     97 H           4.5981   -7.7799    0.0000 H       1  UNL1        0.2100
     98 H           3.4030   -7.0899    0.0000 H       1  UNL1        0.2100
     99 H           2.0000   -4.6599    0.0000 H       1  UNL1        0.2095
@<TRIPOS>BOND
     1    26     1    1
     2    29     1    1
     3     2    29    1
     4     2    34    1
     5    32     3    1
     6     3    85    1
     7    33     4    1
     8     4    97    1
     9    36     5    1
    10     5    98    1
    11     6    38    1
    12     6    99    1
    13     7     8    1
    14     7    11    1
    15     7    13    1
    16     7    20    1
    17     8    12    1
    18     8    16    1
    19     8    42    1
    20     9    10    1
    21     9    12    1
    22     9    15    1
    23     9    43    1
    24    10    14    1
    25    10    18    1
    26    10    24    1
    27    11    17    1
    28    11    23    1
    29    11    44    1
    30    12    21    2
    31    13    15    1
    32    13    45    1
    33    13    46    1
    34    14    19    1
    35    14    22    1
    36    14    47    1
    37    15    48    1
    38    15    49    1
    39    16    17    1
    40    16    50    1
    41    16    51    1
    42    17    52    1
    43    17    53    1
    44    18    25    1
    45    18    54    1
    46    18    55    1
    47    19    21    1
    48    19    56    1
    49    19    57    1
    50    20    58    1
    51    20    59    1
    52    20    60    1
    53    21    61    1
    54    22    26    1
    55    22    62    1
    56    22    63    1
    57    23    27    1
    58    23    28    1
    59    23    64    1
    60    24    65    1
    61    24    66    1
    62    24    67    1
    63    25    26    1
    64    25    68    1
    65    25    69    1
    66    26    70    1
    67    27    71    1
    68    27    72    1
    69    27    73    1
    70    28    30    2
    71    28    74    1
    72    29    32    1
    73    29    75    1
    74    30    31    1
    75    30    76    1
    76    31    35    1
    77    31    37    1
    78    31    77    1
    79    32    33    1
    80    32    78    1
    81    33    36    1
    82    33    79    1
    83    34    36    1
    84    34    38    1
    85    34    80    1
    86    35    39    1
    87    35    40    1
    88    35    81    1
    89    36    82    1
    90    37    41    1
    91    37    83    1
    92    37    84    1
    93    38    86    1
    94    38    87    1
    95    39    88    1
    96    39    89    1
    97    39    90    1
    98    40    91    1
    99    40    92    1
   100    40    93    1
   101    41    94    1
   102    41    95    1
   103    41    96    1
