@<TRIPOS>MOLECULE
IMPHY011470
 82 86 0 0 0
SMALL
GASTEIGER

@<TRIPOS>ATOM
      1 O           7.9506   -2.6365    0.0000 O.3     1  UNL1       -0.3912
      2 O           2.5357   -2.6574    0.0000 O.3     1  UNL1       -0.3912
      3 O          11.4608    0.4291    0.0000 O.3     1  UNL1       -0.4802
      4 O          10.6064   -1.0775    0.0000 O.2     1  UNL1       -0.2504
      5 C           7.0628   -1.1050    0.0000 C.3     1  UNL1        0.0066
      6 C           6.1968   -0.6051    0.0000 C.3     1  UNL1       -0.0234
      7 C           5.2868   -1.1119    0.0000 C.3     1  UNL1       -0.0248
      8 C           7.9288   -0.6051    0.0000 C.3     1  UNL1       -0.0027
      9 C           5.2787   -2.1535    0.0000 C.3     1  UNL1       -0.0255
     10 C           7.0789   -2.1466    0.0000 C.3     1  UNL1        0.0620
     11 C           7.9288    0.3949    0.0000 C.2     1  UNL1       -0.0625
     12 C           6.1808   -2.6743    0.0000 C.3     1  UNL1       -0.0224
     13 C           4.3433   -2.7032    0.0000 C.3     1  UNL1       -0.0055
     14 C           8.8228    0.9296    0.0000 C.3     1  UNL1       -0.0008
     15 C           6.1968    0.3949    0.0000 C.3     1  UNL1       -0.0305
     16 C           8.8228   -1.1397    0.0000 C.3     1  UNL1       -0.0423
     17 C           4.3599   -0.5478    0.0000 C.3     1  UNL1       -0.0447
     18 C           9.7288    0.4158    0.0000 C.3     1  UNL1        0.0743
     19 C           7.7056   -1.8711    0.0000 C.3     1  UNL1       -0.0561
     20 C           9.7288   -0.6259    0.0000 C.3     1  UNL1       -0.0359
     21 C           7.0628    0.8949    0.0000 C.2     1  UNL1       -0.0836
     22 C           3.4037   -2.1607    0.0000 C.3     1  UNL1        0.0606
     23 C           5.2945   -0.1119    0.0000 C.3     1  UNL1       -0.0590
     24 C           3.4120   -1.0758    0.0000 C.3     1  UNL1       -0.0258
     25 C           8.2709   -1.5447    0.0000 C.3     1  UNL1       -0.0552
     26 C           8.7977    2.0143    0.0000 C.3     1  UNL1       -0.0337
     27 C          10.6726    0.9510    0.0000 C.3     1  UNL1       -0.0364
     28 C           9.7288    2.5712    0.0000 C.3     1  UNL1       -0.0407
     29 C           3.8467   -3.5712    0.0000 C.3     1  UNL1       -0.0572
     30 C           4.8466   -3.5673    0.0000 C.3     1  UNL1       -0.0572
     31 C          10.6726    2.0360    0.0000 C.3     1  UNL1       -0.0492
     32 C          10.5987   -0.0775    0.0000 C.2     1  UNL1        0.3115
     33 C           7.9222    2.4975    0.0000 C.3     1  UNL1       -0.0616
     34 C           9.7173    3.5712    0.0000 C.3     1  UNL1       -0.0622
     35 H           6.9329   -0.1801    0.0000 H       1  UNL1        0.0315
     36 H           5.2820   -3.0035    0.0000 H       1  UNL1        0.0313
     37 H           7.0848   -2.7665    0.0000 H       1  UNL1        0.0599
     38 H           5.7835   -3.1503    0.0000 H       1  UNL1        0.0293
     39 H           6.5818   -3.1472    0.0000 H       1  UNL1        0.0293
     40 H           8.0786    1.3404    0.0000 H       1  UNL1        0.0359
     41 H           5.9847    0.9776    0.0000 H       1  UNL1        0.0310
     42 H           5.5862    0.2873    0.0000 H       1  UNL1        0.0310
     43 H           8.4182   -1.6095    0.0000 H       1  UNL1        0.0274
     44 H           9.2164   -1.6187    0.0000 H       1  UNL1        0.0274
     45 H           4.7681   -0.0812    0.0000 H       1  UNL1        0.0271
     46 H           3.9700   -0.0658    0.0000 H       1  UNL1        0.0271
     47 H           7.2306   -2.2696    0.0000 H       1  UNL1        0.0236
     48 H           8.1041   -2.3460    0.0000 H       1  UNL1        0.0236
     49 H           8.1805   -1.4726    0.0000 H       1  UNL1        0.0236
     50 H           9.9379   -1.2096    0.0000 H       1  UNL1        0.0276
     51 H          10.3397   -0.5198    0.0000 H       1  UNL1        0.0276
     52 H           7.0628    1.5150    0.0000 H       1  UNL1        0.0572
     53 H           3.4025   -2.7807    0.0000 H       1  UNL1        0.0599
     54 H           5.9145   -0.1167    0.0000 H       1  UNL1        0.0235
     55 H           5.2993    0.5081    0.0000 H       1  UNL1        0.0235
     56 H           4.6745   -0.1071    0.0000 H       1  UNL1        0.0235
     57 H           3.2075   -0.4905    0.0000 H       1  UNL1        0.0290
     58 H           2.8004   -1.1771    0.0000 H       1  UNL1        0.0290
     59 H           7.6884   -1.7568    0.0000 H       1  UNL1        0.0238
     60 H           8.4830   -2.1273    0.0000 H       1  UNL1        0.0238
     61 H           8.8535   -1.3326    0.0000 H       1  UNL1        0.0238
     62 H           8.2674    1.6930    0.0000 H       1  UNL1        0.0307
     63 H          10.8817    0.3673    0.0000 H       1  UNL1        0.0276
     64 H          11.2835    1.0571    0.0000 H       1  UNL1        0.0276
     65 H          10.2628    2.8864    0.0000 H       1  UNL1        0.0301
     66 H           4.3109   -3.8794    0.0000 H       1  UNL1        0.0236
     67 H           3.3085   -3.2632    0.0000 H       1  UNL1        0.0236
     68 H           3.5387   -4.1093    0.0000 H       1  UNL1        0.0236
     69 H           4.3848   -3.8791    0.0000 H       1  UNL1        0.0236
     70 H           5.1587   -4.1030    0.0000 H       1  UNL1        0.0236
     71 H           5.3824   -3.2553    0.0000 H       1  UNL1        0.0236
     72 H          11.2835    1.9299    0.0000 H       1  UNL1        0.0268
     73 H          10.8817    2.6197    0.0000 H       1  UNL1        0.0268
     74 H           7.9578   -3.2565    0.0000 H       1  UNL1        0.2098
     75 H           8.2218    3.0403    0.0000 H       1  UNL1        0.0233
     76 H           7.3794    2.7971    0.0000 H       1  UNL1        0.0233
     77 H           7.6226    1.9547    0.0000 H       1  UNL1        0.0233
     78 H           2.0000   -2.3453    0.0000 H       1  UNL1        0.2098
     79 H          10.3372    3.5783    0.0000 H       1  UNL1        0.0233
     80 H           9.7101    4.1911    0.0000 H       1  UNL1        0.0233
     81 H           9.0973    3.5640    0.0000 H       1  UNL1        0.0233
     82 H          12.0001    0.1233    0.0000 H       1  UNL1        0.2951
@<TRIPOS>BOND
     1    10     1    1
     2     1    74    1
     3    22     2    1
     4     2    78    1
     5     3    32    1
     6     3    82    1
     7     4    32    2
     8     5     6    1
     9     5     8    1
    10     5    10    1
    11     5    19    1
    12     6     7    1
    13     6    15    1
    14     6    35    1
    15     7     9    1
    16     7    17    1
    17     7    23    1
    18     8    11    1
    19     8    16    1
    20     8    25    1
    21     9    12    1
    22     9    13    1
    23     9    36    1
    24    10    12    1
    25    10    37    1
    26    11    14    1
    27    11    21    2
    28    12    38    1
    29    12    39    1
    30    13    22    1
    31    13    29    1
    32    13    30    1
    33    14    18    1
    34    14    26    1
    35    14    40    1
    36    15    21    1
    37    15    41    1
    38    15    42    1
    39    16    20    1
    40    16    43    1
    41    16    44    1
    42    17    24    1
    43    17    45    1
    44    17    46    1
    45    18    20    1
    46    18    27    1
    47    18    32    1
    48    19    47    1
    49    19    48    1
    50    19    49    1
    51    20    50    1
    52    20    51    1
    53    21    52    1
    54    22    24    1
    55    22    53    1
    56    23    54    1
    57    23    55    1
    58    23    56    1
    59    24    57    1
    60    24    58    1
    61    25    59    1
    62    25    60    1
    63    25    61    1
    64    26    28    1
    65    26    33    1
    66    26    62    1
    67    27    31    1
    68    27    63    1
    69    27    64    1
    70    28    31    1
    71    28    34    1
    72    28    65    1
    73    29    67    1
    74    29    68    1
    75    29    69    1
    76    30    66    1
    77    30    70    1
    78    30    71    1
    79    31    72    1
    80    31    73    1
    81    33    75    1
    82    33    76    1
    83    33    77    1
    84    34    79    1
    85    34    80    1
    86    34    81    1
