@<TRIPOS>MOLECULE
IMPHY007974
 29 28 0 0 0
SMALL
GASTEIGER

@<TRIPOS>ATOM
      1 O1          7.7331    2.1550    0.0000 O.3     1  <1>        -0.4795
      2 O2          6.8671    3.6550    0.0000 O.2     1  <1>        -0.2493
      3 N1          5.1350    2.6550    0.0000 N.3     1  <1>        -0.3184
      4 N2          4.2690   -1.8450    0.0000 N.pl3   1  <1>        -0.1138
      5 N3          3.4030   -3.3450    0.0000 N.pl3   1  <1>        -0.2893
      6 N4          2.5369   -1.8450    0.0000 N.pl3   1  <1>        -0.2893
      7 C1          5.1350    0.6550    0.0000 C.3     1  <1>        -0.0482
      8 C2          6.0010    1.1550    0.0000 C.3     1  <1>        -0.0273
      9 C3          5.1350   -0.3450    0.0000 C.3     1  <1>        -0.0186
     10 C4          6.0010    2.1550    0.0000 C.3     1  <1>         0.1032
     11 C5          4.2690   -0.8450    0.0000 C.3     1  <1>         0.1047
     12 C6          6.8671    2.6550    0.0000 C.2     1  <1>         0.3217
     13 C7          3.4030   -2.3450    0.0000 C.cat   1  <1>         0.3765
     14 H1          4.9230    1.2376    0.0000 H       1  <1>         0.0267
     15 H2          4.5244    0.5473    0.0000 H       1  <1>         0.0267
     16 H3          6.2131    0.5724    0.0000 H       1  <1>         0.0286
     17 H4          6.6116    1.2627    0.0000 H       1  <1>         0.0286
     18 H5          5.3471   -0.9276    0.0000 H       1  <1>         0.0297
     19 H6          5.7456   -0.2373    0.0000 H       1  <1>         0.0297
     20 H7          5.4641    1.8450    0.0000 H       1  <1>         0.0574
     21 H8          4.0569   -0.2624    0.0000 H       1  <1>         0.0693
     22 H9          3.6584   -0.9527    0.0000 H       1  <1>         0.0693
     23 H10         4.5981    2.3450    0.0000 H       1  <1>         0.1190
     24 H11         5.1350    3.2750    0.0000 H       1  <1>         0.1190
     25 H12         8.2700    2.4650    0.0000 H       1  <1>         0.2951
     26 H13         2.8660   -3.6550    0.0000 H       1  <1>         0.2546
     27 H14         3.9399   -3.6550    0.0000 H       1  <1>         0.2546
     28 H15         2.0000   -2.1550    0.0000 H       1  <1>         0.2546
     29 H16         2.5369   -1.2250    0.0000 H       1  <1>         0.2546
@<TRIPOS>BOND
     1     1    12    1
     2     1    25    1
     3     2    12    2
     4    10     3    1
     5     3    23    1
     6     3    24    1
     7     4    11    1
     8     4    13    2
     9     5    13    1
    10     5    26    1
    11     5    27    1
    12     6    13    1
    13     6    28    1
    14     6    29    1
    15     7     8    1
    16     7     9    1
    17     7    14    1
    18     7    15    1
    19     8    10    1
    20     8    16    1
    21     8    17    1
    22     9    11    1
    23     9    18    1
    24     9    19    1
    25    10    12    1
    26    10    20    1
    27    11    21    1
    28    11    22    1
