@<TRIPOS>MOLECULE
IMPHY016482
 25 24 0 0 0
SMALL
GASTEIGER

@<TRIPOS>ATOM
      1 C           2.8660   -0.3100    0.0000 C.3     1  UNL1       -0.0427
      2 C           3.7320    0.1900    0.0000 C.3     1  UNL1       -0.0249
      3 C           2.0000    0.1900    0.0000 C.3     1  UNL1       -0.0624
      4 C           2.8660   -1.3100    0.0000 C.3     1  UNL1       -0.0624
      5 C           4.5981   -0.3100    0.0000 C.2     1  UNL1       -0.0419
      6 C           7.1962    0.1900    0.0000 C.3     1  UNL1       -0.0301
      7 C           5.4641    0.1900    0.0000 C.1     1  UNL1       -0.1283
      8 C           6.3301    0.6900    0.0000 C.2     1  UNL1       -0.0424
      9 C           8.0622    0.6900    0.0000 C.3     1  UNL1       -0.0612
     10 H           2.8660    0.3100    0.0000 H       1  UNL1        0.0299
     11 H           4.1306    0.6649    0.0000 H       1  UNL1        0.0316
     12 H           3.3335    0.6649    0.0000 H       1  UNL1        0.0316
     13 H           2.3100    0.7269    0.0000 H       1  UNL1        0.0232
     14 H           1.4631    0.5000    0.0000 H       1  UNL1        0.0232
     15 H           1.6900   -0.3469    0.0000 H       1  UNL1        0.0232
     16 H           2.2460   -1.3100    0.0000 H       1  UNL1        0.0232
     17 H           2.8660   -1.9300    0.0000 H       1  UNL1        0.0232
     18 H           3.4860   -1.3100    0.0000 H       1  UNL1        0.0232
     19 H           4.5981   -0.9300    0.0000 H       1  UNL1        0.0659
     20 H           6.7976   -0.2849    0.0000 H       1  UNL1        0.0311
     21 H           7.5947   -0.2849    0.0000 H       1  UNL1        0.0311
     22 H           6.3301    1.3100    0.0000 H       1  UNL1        0.0659
     23 H           8.3722    0.1531    0.0000 H       1  UNL1        0.0233
     24 H           8.5991    1.0000    0.0000 H       1  UNL1        0.0233
     25 H           7.7522    1.2269    0.0000 H       1  UNL1        0.0233
@<TRIPOS>BOND
     1     1     2    1
     2     1     3    1
     3     1     4    1
     4     1    10    1
     5     2     5    1
     6     2    11    1
     7     2    12    1
     8     3    13    1
     9     3    14    1
    10     3    15    1
    11     4    16    1
    12     4    17    1
    13     4    18    1
    14     5     7    2
    15     5    19    1
    16     6     8    1
    17     6     9    1
    18     6    20    1
    19     6    21    1
    20     7     8    2
    21     8    22    1
    22     9    23    1
    23     9    24    1
    24     9    25    1
