@<TRIPOS>MOLECULE
IMPHY002453
 162 171 0 0 0
SMALL
GASTEIGER

@<TRIPOS>ATOM
      1 O           6.3844    4.0096    0.0000 O.3     1  UNL1       -0.3476
      2 O           4.6246    4.0511    0.0000 O.3     1  UNL1       -0.3409
      3 O           4.1233    1.1119    0.0000 O.3     1  UNL1       -0.3883
      4 O          11.8874   -1.2440    0.0000 O.3     1  UNL1       -0.3449
      5 O          12.7534    0.2560    0.0000 O.3     1  UNL1       -0.3461
      6 O          13.6194   -2.2440    0.0000 O.3     1  UNL1       -0.3378
      7 O          15.3515   -1.2440    0.0000 O.3     1  UNL1       -0.3400
      8 O          15.3515    0.7560    0.0000 O.3     1  UNL1       -0.3868
      9 O          11.8874   -2.2440    0.0000 O.3     1  UNL1       -0.3431
     10 O          16.2175    0.2560    0.0000 O.3     1  UNL1       -0.3394
     11 O          13.6194   -4.2440    0.0000 O.3     1  UNL1       -0.3841
     12 O          17.0835   -2.2440    0.0000 O.3     1  UNL1       -0.3378
     13 O          11.8874   -5.2440    0.0000 O.3     1  UNL1       -0.3864
     14 O          10.1553   -4.2440    0.0000 O.3     1  UNL1       -0.3866
     15 O          18.8156   -1.2440    0.0000 O.3     1  UNL1       -0.3864
     16 O          18.8156    0.7560    0.0000 O.3     1  UNL1       -0.3864
     17 O          16.2175    2.2560    0.0000 O.3     1  UNL1       -0.4621
     18 O          18.8156   -2.2440    0.0000 O.3     1  UNL1       -0.3461
     19 O          17.0835   -4.2440    0.0000 O.3     1  UNL1       -0.3841
     20 O          18.8156   -5.2440    0.0000 O.3     1  UNL1       -0.3864
     21 O          20.5476   -4.2440    0.0000 O.3     1  UNL1       -0.3869
     22 O          17.0835    3.7560    0.0000 O.2     1  UNL1       -0.2512
     23 C           7.2447    2.5063    0.0000 C.3     1  UNL1        0.0081
     24 C           8.1527    1.9960    0.0000 C.3     1  UNL1       -0.0206
     25 C           6.3767    2.0096    0.0000 C.3     1  UNL1       -0.0223
     26 C           8.1567    0.9543    0.0000 C.3     1  UNL1       -0.0294
     27 C           5.5126    2.5130    0.0000 C.3     1  UNL1        0.0452
     28 C           5.5165    3.5130    0.0000 C.3     1  UNL1        0.1770
     29 C           6.1964    2.6934    0.0000 C.3     1  UNL1        0.0103
     30 C           9.0900    0.4010    0.0000 C.3     1  UNL1       -0.0252
     31 C           7.2485    3.5063    0.0000 C.3     1  UNL1        0.0575
     32 C           6.3567    0.9682    0.0000 C.3     1  UNL1       -0.0488
     33 C           9.0817    2.5564    0.0000 C.3     1  UNL1       -0.0465
     34 C          10.0318    0.9399    0.0000 C.3     1  UNL1       -0.0278
     35 C           7.2527    0.4370    0.0000 C.3     1  UNL1       -0.0489
     36 C           4.6166    1.9818    0.0000 C.3     1  UNL1        0.0739
     37 C          10.0276    2.0249    0.0000 C.3     1  UNL1       -0.0486
     38 C           8.1489    2.9959    0.0000 C.3     1  UNL1       -0.0587
     39 C          11.0170    0.3861    0.0000 C.3     1  UNL1       -0.0052
     40 C           9.0683   -0.7290    0.0000 C.3     1  UNL1       -0.0447
     41 C           8.2221   -0.0957    0.0000 C.3     1  UNL1       -0.0590
     42 C           3.7126    2.4991    0.0000 C.3     1  UNL1        0.0063
     43 C          11.0213   -0.7440    0.0000 C.3     1  UNL1        0.0672
     44 C          10.0404   -1.3053    0.0000 C.3     1  UNL1       -0.0255
     45 C           3.7166    3.5407    0.0000 C.3     1  UNL1        0.0829
     46 C           5.1233    1.1196    0.0000 C.3     1  UNL1       -0.0355
     47 C          11.5103    1.2560    0.0000 C.3     1  UNL1       -0.0572
     48 C          12.0169    0.3939    0.0000 C.3     1  UNL1       -0.0572
     49 C           2.8544    4.0474    0.0000 C.2     1  UNL1       -0.0567
     50 C          12.7534   -0.7440    0.0000 C.3     1  UNL1        0.1882
     51 C           2.8622    5.0474    0.0000 C.2     1  UNL1       -0.0772
     52 C          13.6194   -1.2440    0.0000 C.3     1  UNL1        0.1410
     53 C           2.0000    5.5540    0.0000 C.3     1  UNL1       -0.0440
     54 C           3.7320    5.5407    0.0000 C.3     1  UNL1       -0.0440
     55 C          14.4854   -0.7440    0.0000 C.3     1  UNL1        0.1206
     56 C          13.6194    0.7560    0.0000 C.3     1  UNL1        0.0792
     57 C          14.4854    0.2560    0.0000 C.3     1  UNL1        0.1073
     58 C          12.7534   -2.7440    0.0000 C.3     1  UNL1        0.1884
     59 C          16.2175   -0.7440    0.0000 C.3     1  UNL1        0.1889
     60 C          12.7534   -3.7440    0.0000 C.3     1  UNL1        0.1341
     61 C          17.0835   -1.2440    0.0000 C.3     1  UNL1        0.1406
     62 C          11.8874   -4.2440    0.0000 C.3     1  UNL1        0.1140
     63 C          11.0213   -2.7440    0.0000 C.3     1  UNL1        0.0873
     64 C          11.0213   -3.7440    0.0000 C.3     1  UNL1        0.1095
     65 C          17.9495   -0.7440    0.0000 C.3     1  UNL1        0.1145
     66 C          17.0835    0.7560    0.0000 C.3     1  UNL1        0.1240
     67 C          17.9495    0.2560    0.0000 C.3     1  UNL1        0.1130
     68 C          10.1553   -2.2440    0.0000 C.3     1  UNL1       -0.0361
     69 C          17.0835    1.7560    0.0000 C.3     1  UNL1        0.1211
     70 C          17.9495   -2.7440    0.0000 C.3     1  UNL1        0.1881
     71 C          17.9495   -3.7440    0.0000 C.3     1  UNL1        0.1341
     72 C          18.8156   -4.2440    0.0000 C.3     1  UNL1        0.1137
     73 C          19.6816   -2.7440    0.0000 C.3     1  UNL1        0.0792
     74 C          19.6816   -3.7440    0.0000 C.3     1  UNL1        0.1069
     75 C          16.2175    3.2560    0.0000 C.2     1  UNL1        0.3040
     76 C          15.3515    3.7560    0.0000 C.3     1  UNL1        0.0332
     77 H           5.8278    1.3606    0.0000 H       1  UNL1        0.0312
     78 H           8.1502    0.1044    0.0000 H       1  UNL1        0.0312
     79 H           5.2190    1.7153    0.0000 H       1  UNL1        0.0384
     80 H           5.6260    2.4503    0.0000 H       1  UNL1        0.0323
     81 H           6.2663    2.0773    0.0000 H       1  UNL1        0.0323
     82 H           7.8587    3.3963    0.0000 H       1  UNL1        0.0567
     83 H           7.4628    4.0881    0.0000 H       1  UNL1        0.0567
     84 H           5.7480    1.0860    0.0000 H       1  UNL1        0.0268
     85 H           6.1364    0.3886    0.0000 H       1  UNL1        0.0268
     86 H           9.4735    3.0370    0.0000 H       1  UNL1        0.0271
     87 H           8.6753    3.0247    0.0000 H       1  UNL1        0.0271
     88 H          10.7646    1.3705    0.0000 H       1  UNL1        0.0312
     89 H           6.8499   -0.0344    0.0000 H       1  UNL1        0.0268
     90 H           7.6481   -0.0405    0.0000 H       1  UNL1        0.0268
     91 H          10.6388    1.9211    0.0000 H       1  UNL1        0.0268
     92 H          10.2344    2.6094    0.0000 H       1  UNL1        0.0268
     93 H           8.7689    2.9983    0.0000 H       1  UNL1        0.0235
     94 H           8.1465    3.6159    0.0000 H       1  UNL1        0.0235
     95 H           7.5289    2.9936    0.0000 H       1  UNL1        0.0235
     96 H           8.4596   -0.6111    0.0000 H       1  UNL1        0.0271
     97 H           8.8480   -1.3085    0.0000 H       1  UNL1        0.0271
     98 H           7.9142    0.4425    0.0000 H       1  UNL1        0.0235
     99 H           7.6840   -0.4036    0.0000 H       1  UNL1        0.0235
    100 H           8.5300   -0.6338    0.0000 H       1  UNL1        0.0235
    101 H           3.1021    2.6075    0.0000 H       1  UNL1        0.0321
    102 H           3.5013    1.9162    0.0000 H       1  UNL1        0.0321
    103 H          11.5577   -0.4330    0.0000 H       1  UNL1        0.0602
    104 H           9.6376   -1.7767    0.0000 H       1  UNL1        0.0290
    105 H          10.4359   -1.7828    0.0000 H       1  UNL1        0.0290
    106 H           3.7226    4.1607    0.0000 H       1  UNL1        0.0642
    107 H           4.5888    0.8055    0.0000 H       1  UNL1        0.0257
    108 H           5.4374    0.5851    0.0000 H       1  UNL1        0.0257
    109 H           5.6578    1.4338    0.0000 H       1  UNL1        0.0257
    110 H          12.0496    0.9501    0.0000 H       1  UNL1        0.0236
    111 H          11.8161    1.7953    0.0000 H       1  UNL1        0.0236
    112 H          10.9710    1.5618    0.0000 H       1  UNL1        0.0236
    113 H          12.0217   -0.2261    0.0000 H       1  UNL1        0.0236
    114 H          12.6369    0.3986    0.0000 H       1  UNL1        0.0236
    115 H          12.0122    1.0138    0.0000 H       1  UNL1        0.0236
    116 H           3.5034    1.1071    0.0000 H       1  UNL1        0.2102
    117 H           2.3151    3.7415    0.0000 H       1  UNL1        0.0597
    118 H          12.7534   -1.3640    0.0000 H       1  UNL1        0.0937
    119 H          14.1563   -1.5540    0.0000 H       1  UNL1        0.0675
    120 H           2.3141    6.0885    0.0000 H       1  UNL1        0.0274
    121 H           1.4655    5.8681    0.0000 H       1  UNL1        0.0274
    122 H           1.6859    5.0195    0.0000 H       1  UNL1        0.0274
    123 H           4.0378    5.0014    0.0000 H       1  UNL1        0.0274
    124 H           4.2713    5.8465    0.0000 H       1  UNL1        0.0274
    125 H           3.4262    6.0800    0.0000 H       1  UNL1        0.0274
    126 H          15.0224   -0.4340    0.0000 H       1  UNL1        0.0651
    127 H          14.0179    1.2309    0.0000 H       1  UNL1        0.0587
    128 H          13.2209    1.2309    0.0000 H       1  UNL1        0.0587
    129 H          14.4854    0.8760    0.0000 H       1  UNL1        0.0643
    130 H          13.2903   -3.0540    0.0000 H       1  UNL1        0.0938
    131 H          15.3515    1.3760    0.0000 H       1  UNL1        0.2100
    132 H          15.6805   -0.4340    0.0000 H       1  UNL1        0.0938
    133 H          12.7534   -4.3640    0.0000 H       1  UNL1        0.0671
    134 H          17.6204   -1.5540    0.0000 H       1  UNL1        0.0675
    135 H          11.3504   -4.5540    0.0000 H       1  UNL1        0.0648
    136 H          11.0213   -2.1240    0.0000 H       1  UNL1        0.0621
    137 H          10.4844   -3.4340    0.0000 H       1  UNL1        0.0646
    138 H          18.4865   -0.4340    0.0000 H       1  UNL1        0.0648
    139 H          13.6194   -4.8640    0.0000 H       1  UNL1        0.2101
    140 H          16.5466    1.0660    0.0000 H       1  UNL1        0.0658
    141 H          17.9495    0.8760    0.0000 H       1  UNL1        0.0647
    142 H          10.4653   -1.7071    0.0000 H       1  UNL1        0.0255
    143 H           9.6184   -1.9340    0.0000 H       1  UNL1        0.0255
    144 H           9.8453   -2.7809    0.0000 H       1  UNL1        0.0255
    145 H          11.3504   -5.5540    0.0000 H       1  UNL1        0.2100
    146 H           9.6184   -3.9340    0.0000 H       1  UNL1        0.2100
    147 H          17.6941    1.6483    0.0000 H       1  UNL1        0.0724
    148 H          17.2956    2.3386    0.0000 H       1  UNL1        0.0724
    149 H          19.3525   -0.9340    0.0000 H       1  UNL1        0.2100
    150 H          17.9495   -2.1240    0.0000 H       1  UNL1        0.0937
    151 H          18.8156    1.3760    0.0000 H       1  UNL1        0.2100
    152 H          17.9495   -4.3640    0.0000 H       1  UNL1        0.0671
    153 H          19.3525   -4.5540    0.0000 H       1  UNL1        0.0647
    154 H          20.2922   -2.8517    0.0000 H       1  UNL1        0.0587
    155 H          19.8936   -2.1614    0.0000 H       1  UNL1        0.0587
    156 H          20.2185   -3.4340    0.0000 H       1  UNL1        0.0643
    157 H          17.0835   -4.8640    0.0000 H       1  UNL1        0.2101
    158 H          19.3525   -5.5540    0.0000 H       1  UNL1        0.2100
    159 H          21.0845   -3.9340    0.0000 H       1  UNL1        0.2100
    160 H          15.6615    4.2929    0.0000 H       1  UNL1        0.0342
    161 H          14.8145    4.0660    0.0000 H       1  UNL1        0.0342
    162 H          15.0415    3.2191    0.0000 H       1  UNL1        0.0342
@<TRIPOS>BOND
     1     1    28    1
     2     1    31    1
     3    28     2    1
     4     2    45    1
     5    36     3    1
     6     3   116    1
     7    43     4    1
     8    50     4    1
     9     5    50    1
    10     5    56    1
    11    52     6    1
    12    58     6    1
    13    55     7    1
    14    59     7    1
    15    57     8    1
    16     8   131    1
    17     9    58    1
    18     9    63    1
    19    10    59    1
    20    10    66    1
    21    60    11    1
    22    11   139    1
    23    61    12    1
    24    70    12    1
    25    62    13    1
    26    13   145    1
    27    64    14    1
    28    14   146    1
    29    65    15    1
    30    15   149    1
    31    67    16    1
    32    16   151    1
    33    17    69    1
    34    17    75    1
    35    18    70    1
    36    18    73    1
    37    71    19    1
    38    19   157    1
    39    72    20    1
    40    20   158    1
    41    74    21    1
    42    21   159    1
    43    22    75    2
    44    23    24    1
    45    23    25    1
    46    23    29    1
    47    23    31    1
    48    24    26    1
    49    24    33    1
    50    24    38    1
    51    25    27    1
    52    25    32    1
    53    25    77    1
    54    26    30    1
    55    26    35    1
    56    26    78    1
    57    27    28    1
    58    27    36    1
    59    27    79    1
    60    28    29    1
    61    29    80    1
    62    29    81    1
    63    30    34    1
    64    30    40    1
    65    30    41    1
    66    31    82    1
    67    31    83    1
    68    32    35    1
    69    32    84    1
    70    32    85    1
    71    33    37    1
    72    33    86    1
    73    33    87    1
    74    34    37    1
    75    34    39    1
    76    34    88    1
    77    35    89    1
    78    35    90    1
    79    36    42    1
    80    36    46    1
    81    37    91    1
    82    37    92    1
    83    38    93    1
    84    38    94    1
    85    38    95    1
    86    39    43    1
    87    39    47    1
    88    39    48    1
    89    40    44    1
    90    40    96    1
    91    40    97    1
    92    41    98    1
    93    41    99    1
    94    41   100    1
    95    42    45    1
    96    42   101    1
    97    42   102    1
    98    43    44    1
    99    43   103    1
   100    44   104    1
   101    44   105    1
   102    45    49    1
   103    45   106    1
   104    46   107    1
   105    46   108    1
   106    46   109    1
   107    47   110    1
   108    47   111    1
   109    47   112    1
   110    48   113    1
   111    48   114    1
   112    48   115    1
   113    49    51    2
   114    49   117    1
   115    50    52    1
   116    50   118    1
   117    51    53    1
   118    51    54    1
   119    52    55    1
   120    52   119    1
   121    53   120    1
   122    53   121    1
   123    53   122    1
   124    54   123    1
   125    54   124    1
   126    54   125    1
   127    55    57    1
   128    55   126    1
   129    56    57    1
   130    56   127    1
   131    56   128    1
   132    57   129    1
   133    58    60    1
   134    58   130    1
   135    59    61    1
   136    59   132    1
   137    60    62    1
   138    60   133    1
   139    61    65    1
   140    61   134    1
   141    62    64    1
   142    62   135    1
   143    63    64    1
   144    63    68    1
   145    63   136    1
   146    64   137    1
   147    65    67    1
   148    65   138    1
   149    66    67    1
   150    66    69    1
   151    66   140    1
   152    67   141    1
   153    68   142    1
   154    68   143    1
   155    68   144    1
   156    69   147    1
   157    69   148    1
   158    70    71    1
   159    70   150    1
   160    71    72    1
   161    71   152    1
   162    72    74    1
   163    72   153    1
   164    73    74    1
   165    73   154    1
   166    73   155    1
   167    74   156    1
   168    75    76    1
   169    76   160    1
   170    76   161    1
   171    76   162    1
