@<TRIPOS>MOLECULE
IMPHY003495
 21 21 0 0 0
SMALL
GASTEIGER

@<TRIPOS>ATOM
      1 O           4.2690    1.7500    0.0000 O.3     1  UNL1       -0.4914
      2 O           2.5369    0.7500    0.0000 O.3     1  UNL1       -0.5033
      3 C           5.1350   -0.7500    0.0000 C.ar    1  UNL1       -0.0219
      4 C           4.2690    0.7500    0.0000 C.ar    1  UNL1        0.1618
      5 C           5.1350    0.2500    0.0000 C.ar    1  UNL1       -0.0092
      6 C           3.4030    0.2500    0.0000 C.ar    1  UNL1        0.1585
      7 C           4.2690   -1.2500    0.0000 C.ar    1  UNL1       -0.0509
      8 C           3.4030   -0.7500    0.0000 C.ar    1  UNL1       -0.0160
      9 C           6.0010   -1.2500    0.0000 C.2     1  UNL1       -0.0616
     10 C           5.1350    2.2500    0.0000 C.3     1  UNL1        0.0790
     11 C           6.0010   -2.2500    0.0000 C.2     1  UNL1       -0.0981
     12 H           5.6720    0.5600    0.0000 H       1  UNL1        0.0661
     13 H           4.2690   -1.8700    0.0000 H       1  UNL1        0.0625
     14 H           2.8660   -1.0600    0.0000 H       1  UNL1        0.0655
     15 H           6.5380   -0.9400    0.0000 H       1  UNL1        0.0618
     16 H           5.4450    1.7131    0.0000 H       1  UNL1        0.0660
     17 H           5.6720    2.5600    0.0000 H       1  UNL1        0.0660
     18 H           4.8250    2.7869    0.0000 H       1  UNL1        0.0660
     19 H           2.0000    0.4400    0.0000 H       1  UNL1        0.2923
     20 H           5.4641   -2.5600    0.0000 H       1  UNL1        0.0535
     21 H           6.5380   -2.5600    0.0000 H       1  UNL1        0.0535
@<TRIPOS>BOND
     1     1     4    1
     2     1    10    1
     3     2     6    1
     4     2    19    1
     5     3     5   ar
     6     3     7   ar
     7     3     9    1
     8     4     5   ar
     9     4     6   ar
    10     5    12    1
    11     6     8   ar
    12     7     8   ar
    13     7    13    1
    14     8    14    1
    15     9    11    2
    16     9    15    1
    17    10    16    1
    18    10    17    1
    19    10    18    1
    20    11    20    1
    21    11    21    1
