@<TRIPOS>MOLECULE
IMPHY016676
 88 87 0 0 0
SMALL
GASTEIGER

@<TRIPOS>ATOM
      1 O          12.3923    0.2500    0.0000 O.3     1  UNL1       -0.3775
      2 O          14.9904   -0.2500    0.0000 O.3     1  UNL1       -0.3752
      3 O          17.5885    0.2500    0.0000 O.3     1  UNL1       -0.3752
      4 O          20.1865   -0.2500    0.0000 O.3     1  UNL1       -0.3752
      5 O          22.7846    0.2500    0.0000 O.3     1  UNL1       -0.3752
      6 O          25.3827   -0.2500    0.0000 O.3     1  UNL1       -0.3752
      7 O          27.9808    0.2500    0.0000 O.3     1  UNL1       -0.3752
      8 O          30.5788   -0.2500    0.0000 O.3     1  UNL1       -0.3927
      9 C           7.1962    0.2500    0.0000 C.3     1  UNL1       -0.0531
     10 C           6.3301   -0.2500    0.0000 C.3     1  UNL1       -0.0531
     11 C           8.0622   -0.2500    0.0000 C.3     1  UNL1       -0.0531
     12 C           5.4641    0.2500    0.0000 C.3     1  UNL1       -0.0531
     13 C           8.9282    0.2500    0.0000 C.3     1  UNL1       -0.0530
     14 C           4.5981   -0.2500    0.0000 C.3     1  UNL1       -0.0531
     15 C           9.7942   -0.2500    0.0000 C.3     1  UNL1       -0.0510
     16 C           3.7320    0.2500    0.0000 C.3     1  UNL1       -0.0533
     17 C          10.6603    0.2500    0.0000 C.3     1  UNL1       -0.0295
     18 C           2.8660   -0.2500    0.0000 C.3     1  UNL1       -0.0559
     19 C          11.5263   -0.2500    0.0000 C.3     1  UNL1        0.0478
     20 C           2.0000    0.2500    0.0000 C.3     1  UNL1       -0.0653
     21 C          13.2583   -0.2500    0.0000 C.3     1  UNL1        0.0710
     22 C          14.1244    0.2500    0.0000 C.3     1  UNL1        0.0711
     23 C          15.8564    0.2500    0.0000 C.3     1  UNL1        0.0711
     24 C          16.7224   -0.2500    0.0000 C.3     1  UNL1        0.0711
     25 C          18.4545   -0.2500    0.0000 C.3     1  UNL1        0.0711
     26 C          19.3205    0.2500    0.0000 C.3     1  UNL1        0.0711
     27 C          21.0526    0.2500    0.0000 C.3     1  UNL1        0.0711
     28 C          21.9186   -0.2500    0.0000 C.3     1  UNL1        0.0711
     29 C          23.6506   -0.2500    0.0000 C.3     1  UNL1        0.0711
     30 C          24.5167    0.2500    0.0000 C.3     1  UNL1        0.0711
     31 C          26.2487    0.2500    0.0000 C.3     1  UNL1        0.0711
     32 C          27.1147   -0.2500    0.0000 C.3     1  UNL1        0.0711
     33 C          28.8468   -0.2500    0.0000 C.3     1  UNL1        0.0708
     34 C          29.7128    0.2500    0.0000 C.3     1  UNL1        0.0676
     35 H           7.5947    0.7249    0.0000 H       1  UNL1        0.0265
     36 H           6.7976    0.7249    0.0000 H       1  UNL1        0.0265
     37 H           5.9316   -0.7249    0.0000 H       1  UNL1        0.0265
     38 H           6.7287   -0.7249    0.0000 H       1  UNL1        0.0265
     39 H           7.6636   -0.7249    0.0000 H       1  UNL1        0.0265
     40 H           8.4607   -0.7249    0.0000 H       1  UNL1        0.0265
     41 H           5.8626    0.7249    0.0000 H       1  UNL1        0.0265
     42 H           5.0656    0.7249    0.0000 H       1  UNL1        0.0265
     43 H           9.3267    0.7249    0.0000 H       1  UNL1        0.0265
     44 H           8.5297    0.7249    0.0000 H       1  UNL1        0.0265
     45 H           4.1996   -0.7249    0.0000 H       1  UNL1        0.0265
     46 H           4.9966   -0.7249    0.0000 H       1  UNL1        0.0265
     47 H           9.3957   -0.7249    0.0000 H       1  UNL1        0.0266
     48 H          10.1928   -0.7249    0.0000 H       1  UNL1        0.0266
     49 H           4.1306    0.7249    0.0000 H       1  UNL1        0.0265
     50 H           3.3335    0.7249    0.0000 H       1  UNL1        0.0265
     51 H          11.0588    0.7249    0.0000 H       1  UNL1        0.0287
     52 H          10.2617    0.7249    0.0000 H       1  UNL1        0.0287
     53 H           2.4675   -0.7249    0.0000 H       1  UNL1        0.0263
     54 H           3.2646   -0.7249    0.0000 H       1  UNL1        0.0263
     55 H          11.1278   -0.7249    0.0000 H       1  UNL1        0.0560
     56 H          11.9248   -0.7249    0.0000 H       1  UNL1        0.0560
     57 H           2.3100    0.7869    0.0000 H       1  UNL1        0.0230
     58 H           1.4631    0.5600    0.0000 H       1  UNL1        0.0230
     59 H           1.6900   -0.2869    0.0000 H       1  UNL1        0.0230
     60 H          12.8598   -0.7249    0.0000 H       1  UNL1        0.0583
     61 H          13.6569   -0.7249    0.0000 H       1  UNL1        0.0583
     62 H          14.5229    0.7249    0.0000 H       1  UNL1        0.0583
     63 H          13.7258    0.7249    0.0000 H       1  UNL1        0.0583
     64 H          16.2549    0.7249    0.0000 H       1  UNL1        0.0583
     65 H          15.4579    0.7249    0.0000 H       1  UNL1        0.0583
     66 H          16.3239   -0.7249    0.0000 H       1  UNL1        0.0583
     67 H          17.1210   -0.7249    0.0000 H       1  UNL1        0.0583
     68 H          18.0560   -0.7249    0.0000 H       1  UNL1        0.0583
     69 H          18.8530   -0.7249    0.0000 H       1  UNL1        0.0583
     70 H          19.7190    0.7249    0.0000 H       1  UNL1        0.0583
     71 H          18.9220    0.7249    0.0000 H       1  UNL1        0.0583
     72 H          21.4511    0.7249    0.0000 H       1  UNL1        0.0583
     73 H          20.6540    0.7249    0.0000 H       1  UNL1        0.0583
     74 H          21.5201   -0.7249    0.0000 H       1  UNL1        0.0583
     75 H          22.3171   -0.7249    0.0000 H       1  UNL1        0.0583
     76 H          23.2521   -0.7249    0.0000 H       1  UNL1        0.0583
     77 H          24.0492   -0.7249    0.0000 H       1  UNL1        0.0583
     78 H          24.9152    0.7249    0.0000 H       1  UNL1        0.0583
     79 H          24.1181    0.7249    0.0000 H       1  UNL1        0.0583
     80 H          26.6472    0.7249    0.0000 H       1  UNL1        0.0583
     81 H          25.8502    0.7249    0.0000 H       1  UNL1        0.0583
     82 H          26.7162   -0.7249    0.0000 H       1  UNL1        0.0583
     83 H          27.5133   -0.7249    0.0000 H       1  UNL1        0.0583
     84 H          28.4483   -0.7249    0.0000 H       1  UNL1        0.0583
     85 H          29.2453   -0.7249    0.0000 H       1  UNL1        0.0583
     86 H          30.1113    0.7249    0.0000 H       1  UNL1        0.0580
     87 H          29.3143    0.7249    0.0000 H       1  UNL1        0.0580
     88 H          31.1158    0.0600    0.0000 H       1  UNL1        0.2095
@<TRIPOS>BOND
     1     1    19    1
     2     1    21    1
     3     2    22    1
     4     2    23    1
     5     3    24    1
     6     3    25    1
     7     4    26    1
     8     4    27    1
     9     5    28    1
    10     5    29    1
    11     6    30    1
    12     6    31    1
    13     7    32    1
    14     7    33    1
    15     8    34    1
    16     8    88    1
    17     9    10    1
    18     9    11    1
    19     9    35    1
    20     9    36    1
    21    10    12    1
    22    10    37    1
    23    10    38    1
    24    11    13    1
    25    11    39    1
    26    11    40    1
    27    12    14    1
    28    12    41    1
    29    12    42    1
    30    13    15    1
    31    13    43    1
    32    13    44    1
    33    14    16    1
    34    14    45    1
    35    14    46    1
    36    15    17    1
    37    15    47    1
    38    15    48    1
    39    16    18    1
    40    16    49    1
    41    16    50    1
    42    17    19    1
    43    17    51    1
    44    17    52    1
    45    18    20    1
    46    18    53    1
    47    18    54    1
    48    19    55    1
    49    19    56    1
    50    20    57    1
    51    20    58    1
    52    20    59    1
    53    21    22    1
    54    21    60    1
    55    21    61    1
    56    22    62    1
    57    22    63    1
    58    23    24    1
    59    23    64    1
    60    23    65    1
    61    24    66    1
    62    24    67    1
    63    25    26    1
    64    25    68    1
    65    25    69    1
    66    26    70    1
    67    26    71    1
    68    27    28    1
    69    27    72    1
    70    27    73    1
    71    28    74    1
    72    28    75    1
    73    29    30    1
    74    29    76    1
    75    29    77    1
    76    30    78    1
    77    30    79    1
    78    31    32    1
    79    31    80    1
    80    31    81    1
    81    32    82    1
    82    32    83    1
    83    33    34    1
    84    33    84    1
    85    33    85    1
    86    34    86    1
    87    34    87    1
