@<TRIPOS>MOLECULE
IMPHY017906
 40 39 0 0 0
SMALL
GASTEIGER

@<TRIPOS>ATOM
      1 O           4.5981   -0.7500    0.0000 O.2     1  UNL1       -0.2974
      2 C           8.0622    0.2500    0.0000 C.3     1  UNL1       -0.0530
      3 C           8.9282    0.7500    0.0000 C.3     1  UNL1       -0.0531
      4 C           7.1962    0.7500    0.0000 C.3     1  UNL1       -0.0527
      5 C           9.7942    0.2500    0.0000 C.3     1  UNL1       -0.0531
      6 C           6.3301    0.2500    0.0000 C.3     1  UNL1       -0.0464
      7 C          10.6603    0.7500    0.0000 C.3     1  UNL1       -0.0533
      8 C           5.4641    0.7500    0.0000 C.3     1  UNL1        0.0058
      9 C          11.5263    0.2500    0.0000 C.3     1  UNL1       -0.0559
     10 C           4.5981    0.2500    0.0000 C.2     1  UNL1        0.1334
     11 C           3.7320    0.7500    0.0000 C.3     1  UNL1        0.0056
     12 C          12.3923    0.7500    0.0000 C.3     1  UNL1       -0.0653
     13 C           2.8660    0.2500    0.0000 C.3     1  UNL1       -0.0492
     14 C           2.0000    0.7500    0.0000 C.3     1  UNL1       -0.0649
     15 H           7.6636   -0.2249    0.0000 H       1  UNL1        0.0265
     16 H           8.4607   -0.2249    0.0000 H       1  UNL1        0.0265
     17 H           9.3267    1.2250    0.0000 H       1  UNL1        0.0265
     18 H           8.5297    1.2250    0.0000 H       1  UNL1        0.0265
     19 H           7.5947    1.2250    0.0000 H       1  UNL1        0.0265
     20 H           6.7976    1.2250    0.0000 H       1  UNL1        0.0265
     21 H           9.3957   -0.2249    0.0000 H       1  UNL1        0.0265
     22 H          10.1928   -0.2249    0.0000 H       1  UNL1        0.0265
     23 H           5.9316   -0.2249    0.0000 H       1  UNL1        0.0269
     24 H           6.7287   -0.2249    0.0000 H       1  UNL1        0.0269
     25 H          11.0588    1.2250    0.0000 H       1  UNL1        0.0265
     26 H          10.2617    1.2250    0.0000 H       1  UNL1        0.0265
     27 H           5.8626    1.2250    0.0000 H       1  UNL1        0.0342
     28 H           5.0656    1.2250    0.0000 H       1  UNL1        0.0342
     29 H          11.1278   -0.2249    0.0000 H       1  UNL1        0.0263
     30 H          11.9248   -0.2249    0.0000 H       1  UNL1        0.0263
     31 H           4.1306    1.2250    0.0000 H       1  UNL1        0.0341
     32 H           3.3335    1.2250    0.0000 H       1  UNL1        0.0341
     33 H          12.7023    0.2131    0.0000 H       1  UNL1        0.0230
     34 H          12.9292    1.0600    0.0000 H       1  UNL1        0.0230
     35 H          12.0823    1.2869    0.0000 H       1  UNL1        0.0230
     36 H           2.4675   -0.2249    0.0000 H       1  UNL1        0.0267
     37 H           3.2646   -0.2249    0.0000 H       1  UNL1        0.0267
     38 H           2.3100    1.2869    0.0000 H       1  UNL1        0.0230
     39 H           1.4631    1.0600    0.0000 H       1  UNL1        0.0230
     40 H           1.6900    0.2131    0.0000 H       1  UNL1        0.0230
@<TRIPOS>BOND
     1     1    10    2
     2     2     3    1
     3     2     4    1
     4     2    15    1
     5     2    16    1
     6     3     5    1
     7     3    17    1
     8     3    18    1
     9     4     6    1
    10     4    19    1
    11     4    20    1
    12     5     7    1
    13     5    21    1
    14     5    22    1
    15     6     8    1
    16     6    23    1
    17     6    24    1
    18     7     9    1
    19     7    25    1
    20     7    26    1
    21     8    10    1
    22     8    27    1
    23     8    28    1
    24     9    12    1
    25     9    29    1
    26     9    30    1
    27    10    11    1
    28    11    13    1
    29    11    31    1
    30    11    32    1
    31    12    33    1
    32    12    34    1
    33    12    35    1
    34    13    14    1
    35    13    36    1
    36    13    37    1
    37    14    38    1
    38    14    39    1
    39    14    40    1
