@<TRIPOS>MOLECULE
IMPHY014008
 32 33 0 0 0
SMALL
GASTEIGER

@<TRIPOS>ATOM
      1 O           2.5369   -2.3450    0.0000 O.3     1  UNL1       -0.5033
      2 O           4.2690   -3.3450    0.0000 O.3     1  UNL1       -0.5033
      3 N           4.2690    2.6550    0.0000 N.3     1  UNL1       -0.3053
      4 C           4.2690    0.6550    0.0000 C.3     1  UNL1       -0.0134
      5 C           3.4030    1.1550    0.0000 C.3     1  UNL1       -0.0333
      6 C           5.1350    1.1550    0.0000 C.3     1  UNL1       -0.0333
      7 C           3.4030    2.1550    0.0000 C.3     1  UNL1       -0.0009
      8 C           5.1350    2.1550    0.0000 C.3     1  UNL1       -0.0009
      9 C           4.2690   -0.3450    0.0000 C.ar    1  UNL1       -0.0405
     10 C           4.2690    3.6550    0.0000 C.3     1  UNL1       -0.0128
     11 C           3.4030   -0.8450    0.0000 C.ar    1  UNL1       -0.0131
     12 C           5.1350   -0.8450    0.0000 C.ar    1  UNL1       -0.0546
     13 C           3.4030   -1.8450    0.0000 C.ar    1  UNL1        0.1585
     14 C           5.1350   -1.8450    0.0000 C.ar    1  UNL1       -0.0163
     15 C           4.2690   -2.3450    0.0000 C.ar    1  UNL1        0.1582
     16 H           4.8059    0.3450    0.0000 H       1  UNL1        0.0350
     17 H           2.7924    1.2627    0.0000 H       1  UNL1        0.0283
     18 H           3.1909    0.5724    0.0000 H       1  UNL1        0.0283
     19 H           5.3471    0.5724    0.0000 H       1  UNL1        0.0283
     20 H           5.7456    1.2627    0.0000 H       1  UNL1        0.0283
     21 H           3.1909    2.7376    0.0000 H       1  UNL1        0.0427
     22 H           2.7924    2.0473    0.0000 H       1  UNL1        0.0427
     23 H           5.7456    2.0473    0.0000 H       1  UNL1        0.0427
     24 H           5.3471    2.7376    0.0000 H       1  UNL1        0.0427
     25 H           4.8890    3.6550    0.0000 H       1  UNL1        0.0391
     26 H           4.2690    4.2750    0.0000 H       1  UNL1        0.0391
     27 H           3.6490    3.6550    0.0000 H       1  UNL1        0.0391
     28 H           2.8660   -0.5350    0.0000 H       1  UNL1        0.0658
     29 H           5.6720   -0.5350    0.0000 H       1  UNL1        0.0622
     30 H           5.6720   -2.1550    0.0000 H       1  UNL1        0.0655
     31 H           2.0000   -2.0350    0.0000 H       1  UNL1        0.2923
     32 H           4.8059   -3.6550    0.0000 H       1  UNL1        0.2923
@<TRIPOS>BOND
     1     1    13    1
     2     1    31    1
     3     2    15    1
     4     2    32    1
     5     3     7    1
     6     3     8    1
     7     3    10    1
     8     4     5    1
     9     4     6    1
    10     4     9    1
    11     4    16    1
    12     5     7    1
    13     5    17    1
    14     5    18    1
    15     6     8    1
    16     6    19    1
    17     6    20    1
    18     7    21    1
    19     7    22    1
    20     8    23    1
    21     8    24    1
    22     9    11   ar
    23     9    12   ar
    24    10    25    1
    25    10    26    1
    26    10    27    1
    27    11    13   ar
    28    11    28    1
    29    12    14   ar
    30    12    29    1
    31    13    15   ar
    32    14    15   ar
    33    14    30    1
