@<TRIPOS>MOLECULE
IMPHY000778
 57 60 0 0 0
SMALL
GASTEIGER

@<TRIPOS>ATOM
      1 O           5.2881    1.0565    0.0000 O.3     1  UNL1       -0.3282
      2 O           7.7105   -0.6162    0.0000 O.3     1  UNL1       -0.3842
      3 O           4.1189    1.1794    0.0000 O.3     1  UNL1       -0.3636
      4 O           5.6049   -1.9893    0.0000 O.3     1  UNL1       -0.3867
      5 O           5.3356    2.1498    0.0000 O.3     1  UNL1       -0.3881
      6 O           6.8402   -1.0139    0.0000 O.2     1  UNL1       -0.2933
      7 O           2.1404   -1.6950    0.0000 O.2     1  UNL1       -0.2966
      8 C           6.2016    0.6498    0.0000 C.3     1  UNL1        0.1859
      9 C           7.0676    0.1498    0.0000 C.3     1  UNL1        0.1165
     10 C           5.1189   -0.5527    0.0000 C.3     1  UNL1        0.1119
     11 C           2.9318   -0.2170    0.0000 C.3     1  UNL1        0.0630
     12 C           4.6189    0.3134    0.0000 C.3     1  UNL1        0.1846
     13 C           3.6481    0.4530    0.0000 C.3     1  UNL1        0.0172
     14 C           4.7545   -1.4632    0.0000 C.3     1  UNL1        0.0921
     15 C           6.0971   -0.3448    0.0000 C.2     1  UNL1        0.1841
     16 C           6.2016    1.6498    0.0000 C.3     1  UNL1        0.0965
     17 C           7.9336    0.6498    0.0000 C.3     1  UNL1       -0.0195
     18 C           3.8161   -1.7485    0.0000 C.3     1  UNL1        0.0367
     19 C           3.0065   -1.1950    0.0000 C.2     1  UNL1        0.1450
     20 C           7.0676    2.1498    0.0000 C.3     1  UNL1       -0.0145
     21 C           7.9336    1.6498    0.0000 C.3     1  UNL1       -0.0453
     22 C           5.8860   -1.1942    0.0000 C.3     1  UNL1       -0.0450
     23 C           2.0000    0.1458    0.0000 C.3     1  UNL1       -0.0499
     24 C           5.0441   -2.4204    0.0000 C.3     1  UNL1       -0.0163
     25 C           7.0676    3.1498    0.0000 C.3     1  UNL1       -0.0600
     26 C           4.3600   -3.1498    0.0000 C.3     1  UNL1       -0.0600
     27 C           6.0178   -2.6481    0.0000 C.3     1  UNL1       -0.0600
     28 H           3.8713    1.0315    0.0000 H       1  UNL1        0.0328
     29 H           3.1341    0.7997    0.0000 H       1  UNL1        0.0328
     30 H           6.2016    2.2698    0.0000 H       1  UNL1        0.0630
     31 H           8.1457    0.0672    0.0000 H       1  UNL1        0.0294
     32 H           8.5442    0.7574    0.0000 H       1  UNL1        0.0294
     33 H           3.3606   -2.1692    0.0000 H       1  UNL1        0.0370
     34 H           4.1244   -2.2864    0.0000 H       1  UNL1        0.0370
     35 H           7.6046    2.4598    0.0000 H       1  UNL1        0.0324
     36 H           8.5442    1.5421    0.0000 H       1  UNL1        0.0270
     37 H           8.1457    2.2324    0.0000 H       1  UNL1        0.0270
     38 H           5.4883   -1.6698    0.0000 H       1  UNL1        0.0242
     39 H           6.3616   -1.5920    0.0000 H       1  UNL1        0.0242
     40 H           6.2838   -0.7186    0.0000 H       1  UNL1        0.0242
     41 H           2.2250    0.7236    0.0000 H       1  UNL1        0.0240
     42 H           1.4222    0.3708    0.0000 H       1  UNL1        0.0240
     43 H           1.7750   -0.4319    0.0000 H       1  UNL1        0.0240
     44 H           5.2236   -3.0138    0.0000 H       1  UNL1        0.0323
     45 H           8.3210   -0.5086    0.0000 H       1  UNL1        0.2103
     46 H           3.4989    1.1794    0.0000 H       1  UNL1        0.2128
     47 H           6.2247   -2.0080    0.0000 H       1  UNL1        0.2102
     48 H           7.6876    3.1498    0.0000 H       1  UNL1        0.0233
     49 H           7.0676    3.7698    0.0000 H       1  UNL1        0.0233
     50 H           6.4476    3.1498    0.0000 H       1  UNL1        0.0233
     51 H           5.3356    2.7698    0.0000 H       1  UNL1        0.2099
     52 H           3.9078   -2.7256    0.0000 H       1  UNL1        0.0233
     53 H           3.9358   -3.6020    0.0000 H       1  UNL1        0.0233
     54 H           4.8122   -3.5739    0.0000 H       1  UNL1        0.0233
     55 H           5.8766   -3.2518    0.0000 H       1  UNL1        0.0233
     56 H           6.6215   -2.7894    0.0000 H       1  UNL1        0.0233
     57 H           6.1590   -2.0444    0.0000 H       1  UNL1        0.0233
@<TRIPOS>BOND
     1     8     1    1
     2     1    12    1
     3     9     2    1
     4     2    45    1
     5    12     3    1
     6     3    46    1
     7    14     4    1
     8     4    47    1
     9    16     5    1
    10     5    51    1
    11     6    15    2
    12     7    19    2
    13     8     9    1
    14     8    15    1
    15     8    16    1
    16     9    11    1
    17     9    17    1
    18    10    12    1
    19    10    14    1
    20    10    15    1
    21    10    22    1
    22    11    13    1
    23    11    19    1
    24    11    23    1
    25    12    13    1
    26    13    28    1
    27    13    29    1
    28    14    18    1
    29    14    24    1
    30    16    20    1
    31    16    30    1
    32    17    21    1
    33    17    31    1
    34    17    32    1
    35    18    19    1
    36    18    33    1
    37    18    34    1
    38    20    21    1
    39    20    25    1
    40    20    35    1
    41    21    36    1
    42    21    37    1
    43    22    38    1
    44    22    39    1
    45    22    40    1
    46    23    41    1
    47    23    42    1
    48    23    43    1
    49    24    26    1
    50    24    27    1
    51    24    44    1
    52    25    48    1
    53    25    49    1
    54    25    50    1
    55    26    52    1
    56    26    53    1
    57    26    54    1
    58    27    55    1
    59    27    56    1
    60    27    57    1
