@<TRIPOS>MOLECULE
IMPHY009388
 91 97 0 0 0
SMALL
GASTEIGER

@<TRIPOS>ATOM
      1 O           5.5627   -4.0408    0.0000 O.3     1  UNL1       -0.4914
      2 O           6.3923    0.4839    0.0000 O.3     1  UNL1       -0.4519
      3 O           3.8463   -5.0674    0.0000 O.3     1  UNL1       -0.4914
      4 O           6.4077   -3.5160    0.0000 O.3     1  UNL1       -0.4914
      5 O           8.1359   -2.5094    0.0000 O.3     1  UNL1       -0.4913
      6 O           6.3923    2.5322    0.0000 O.3     1  UNL1       -0.4914
      7 O           9.0346    4.0395    0.0000 O.3     1  UNL1       -0.4908
      8 O          10.8005    5.0773    0.0000 O.3     1  UNL1       -0.4914
      9 O           9.9224   -0.4919    0.0000 O.2     1  UNL1       -0.2850
     10 N           2.8939   -0.5122    0.0000 N.3     1  UNL1       -0.2978
     11 N          11.6467    0.5111    0.0000 N.ar    1  UNL1       -0.2511
     12 C           3.8000   -1.0261    0.0000 C.3     1  UNL1        0.0398
     13 C           3.8000   -2.0677    0.0000 C.ar    1  UNL1       -0.0231
     14 C           2.0000   -1.0469    0.0000 C.3     1  UNL1        0.0032
     15 C           2.0241   -2.0882    0.0000 C.3     1  UNL1       -0.0144
     16 C           4.6641   -0.5228    0.0000 C.3     1  UNL1       -0.0043
     17 C           2.9418   -2.5810    0.0000 C.ar    1  UNL1       -0.0378
     18 C           4.6736   -2.5543    0.0000 C.ar    1  UNL1       -0.0114
     19 C           2.8824    0.4877    0.0000 C.3     1  UNL1       -0.0122
     20 C           5.5320   -1.0194    0.0000 C.ar    1  UNL1        0.0004
     21 C           2.9572   -3.5809    0.0000 C.ar    1  UNL1       -0.0128
     22 C           4.6891   -3.5542    0.0000 C.ar    1  UNL1        0.1618
     23 C           3.8308   -4.0675    0.0000 C.ar    1  UNL1        0.1618
     24 C           6.3961   -0.5161    0.0000 C.ar    1  UNL1        0.1355
     25 C           5.5359   -2.0194    0.0000 C.ar    1  UNL1       -0.0096
     26 C           7.2641   -1.0127    0.0000 C.ar    1  UNL1        0.0263
     27 C           6.4038   -2.5161    0.0000 C.ar    1  UNL1        0.1620
     28 C           7.2679   -2.0127    0.0000 C.ar    1  UNL1        0.1650
     29 C           7.2564    0.9872    0.0000 C.ar    1  UNL1        0.1705
     30 C           9.0564    2.0081    0.0000 C.ar    1  UNL1        0.0009
     31 C           9.9224    2.5081    0.0000 C.ar    1  UNL1        0.0381
     32 C           9.0564    1.0081    0.0000 C.ar    1  UNL1        0.0354
     33 C          10.7884    2.0081    0.0000 C.ar    1  UNL1        0.0227
     34 C           8.1624    0.4734    0.0000 C.ar    1  UNL1       -0.0042
     35 C           7.2564    2.0289    0.0000 C.ar    1  UNL1        0.1627
     36 C          10.7884    1.0081    0.0000 C.ar    1  UNL1        0.1193
     37 C           8.1624    2.5427    0.0000 C.ar    1  UNL1       -0.0078
     38 C           9.9224    0.5081    0.0000 C.2     1  UNL1        0.2125
     39 C          11.6984    2.5149    0.0000 C.ar    1  UNL1       -0.0100
     40 C           9.9064    3.5496    0.0000 C.ar    1  UNL1        0.1698
     41 C           5.5781   -5.0407    0.0000 C.3     1  UNL1        0.0790
     42 C           2.9880   -5.5806    0.0000 C.3     1  UNL1        0.0790
     43 C          10.8044    4.0773    0.0000 C.ar    1  UNL1        0.1627
     44 C          11.7065    3.5565    0.0000 C.ar    1  UNL1       -0.0084
     45 C          12.5378    1.9867    0.0000 C.ar    1  UNL1       -0.0357
     46 C          12.5121    0.9953    0.0000 C.ar    1  UNL1        0.0290
     47 C           7.2756   -4.0127    0.0000 C.3     1  UNL1        0.0790
     48 C           9.0000   -2.0060    0.0000 C.3     1  UNL1        0.0790
     49 C           6.3961    3.5322    0.0000 C.3     1  UNL1        0.0790
     50 C           9.0230    5.0395    0.0000 C.3     1  UNL1        0.0790
     51 C          11.6646    5.5806    0.0000 C.3     1  UNL1        0.0790
     52 H           3.7964   -0.4061    0.0000 H       1  UNL1        0.0515
     53 H           1.7775   -0.4682    0.0000 H       1  UNL1        0.0430
     54 H           1.3918   -1.1671    0.0000 H       1  UNL1        0.0430
     55 H           1.4109   -1.9963    0.0000 H       1  UNL1        0.0326
     56 H           1.8286   -2.6766    0.0000 H       1  UNL1        0.0326
     57 H           5.0608   -0.0463    0.0000 H       1  UNL1        0.0333
     58 H           4.2637   -0.0493    0.0000 H       1  UNL1        0.0333
     59 H           5.2057   -2.2361    0.0000 H       1  UNL1        0.0659
     60 H           3.5023    0.4949    0.0000 H       1  UNL1        0.0391
     61 H           2.8752    1.1076    0.0000 H       1  UNL1        0.0391
     62 H           2.2624    0.4805    0.0000 H       1  UNL1        0.0391
     63 H           2.4251   -3.8991    0.0000 H       1  UNL1        0.0658
     64 H           5.0002   -2.3315    0.0000 H       1  UNL1        0.0659
     65 H           7.7998   -0.7007    0.0000 H       1  UNL1        0.0692
     66 H           8.1696   -0.1466    0.0000 H       1  UNL1        0.0663
     67 H           8.1696    3.1627    0.0000 H       1  UNL1        0.0662
     68 H           4.9582   -5.0502    0.0000 H       1  UNL1        0.0660
     69 H           5.5877   -5.6606    0.0000 H       1  UNL1        0.0660
     70 H           6.1980   -5.0311    0.0000 H       1  UNL1        0.0660
     71 H           2.6698   -5.0486    0.0000 H       1  UNL1        0.0660
     72 H           2.4560   -5.8989    0.0000 H       1  UNL1        0.0660
     73 H           3.3063   -6.1128    0.0000 H       1  UNL1        0.0660
     74 H          12.2446    3.8644    0.0000 H       1  UNL1        0.0661
     75 H          13.0843    2.2794    0.0000 H       1  UNL1        0.0639
     76 H          13.0429    0.6748    0.0000 H       1  UNL1        0.0830
     77 H           6.9677   -4.5508    0.0000 H       1  UNL1        0.0660
     78 H           7.8138   -4.3206    0.0000 H       1  UNL1        0.0660
     79 H           7.5836   -3.4746    0.0000 H       1  UNL1        0.0660
     80 H           9.3120   -2.5418    0.0000 H       1  UNL1        0.0660
     81 H           9.5357   -1.6940    0.0000 H       1  UNL1        0.0660
     82 H           8.6879   -1.4703    0.0000 H       1  UNL1        0.0660
     83 H           7.0161    3.5298    0.0000 H       1  UNL1        0.0660
     84 H           6.3985    4.1522    0.0000 H       1  UNL1        0.0660
     85 H           5.7761    3.5346    0.0000 H       1  UNL1        0.0660
     86 H           9.6430    5.0466    0.0000 H       1  UNL1        0.0660
     87 H           9.0159    5.6594    0.0000 H       1  UNL1        0.0660
     88 H           8.4031    5.0323    0.0000 H       1  UNL1        0.0660
     89 H          11.9767    5.0449    0.0000 H       1  UNL1        0.0660
     90 H          12.2004    5.8927    0.0000 H       1  UNL1        0.0660
     91 H          11.3526    6.1164    0.0000 H       1  UNL1        0.0660
@<TRIPOS>BOND
     1     1    22    1
     2     1    41    1
     3     2    24    1
     4     2    29    1
     5     3    23    1
     6     3    42    1
     7     4    27    1
     8     4    47    1
     9     5    28    1
    10     5    48    1
    11     6    35    1
    12     6    49    1
    13     7    40    1
    14     7    50    1
    15     8    43    1
    16     8    51    1
    17     9    38    2
    18    10    12    1
    19    10    14    1
    20    10    19    1
    21    11    36   ar
    22    11    46   ar
    23    12    13    1
    24    12    16    1
    25    12    52    1
    26    13    17   ar
    27    13    18   ar
    28    14    15    1
    29    14    53    1
    30    14    54    1
    31    15    17    1
    32    15    55    1
    33    15    56    1
    34    16    20    1
    35    16    57    1
    36    16    58    1
    37    17    21   ar
    38    18    22   ar
    39    18    59    1
    40    19    60    1
    41    19    61    1
    42    19    62    1
    43    20    24   ar
    44    20    25   ar
    45    21    23   ar
    46    21    63    1
    47    22    23   ar
    48    24    26   ar
    49    25    27   ar
    50    25    64    1
    51    26    28   ar
    52    26    65    1
    53    27    28   ar
    54    29    34   ar
    55    29    35   ar
    56    30    31    1
    57    30    32   ar
    58    30    37   ar
    59    31    33   ar
    60    31    40   ar
    61    32    34   ar
    62    32    38    1
    63    33    36   ar
    64    33    39   ar
    65    34    66    1
    66    35    37   ar
    67    36    38    1
    68    37    67    1
    69    39    44   ar
    70    39    45   ar
    71    40    43   ar
    72    41    68    1
    73    41    69    1
    74    41    70    1
    75    42    71    1
    76    42    72    1
    77    42    73    1
    78    43    44   ar
    79    44    74    1
    80    45    46   ar
    81    45    75    1
    82    46    76    1
    83    47    77    1
    84    47    78    1
    85    47    79    1
    86    48    80    1
    87    48    81    1
    88    48    82    1
    89    49    83    1
    90    49    84    1
    91    49    85    1
    92    50    86    1
    93    50    87    1
    94    50    88    1
    95    51    89    1
    96    51    90    1
    97    51    91    1
