@<TRIPOS>MOLECULE
IMPHY017618
 40 40 0 0 0
SMALL
GASTEIGER

@<TRIPOS>ATOM
      1 O           3.3660   -1.1830    0.0000 O.3     1  UNL1       -0.3653
      2 C           2.8660   -0.3170    0.0000 C.3     1  UNL1        0.0904
      3 C           3.8660   -0.3170    0.0000 C.3     1  UNL1        0.0881
      4 C           4.7320    0.1830    0.0000 C.3     1  UNL1       -0.0202
      5 C           2.8660    0.6830    0.0000 C.3     1  UNL1       -0.0336
      6 C           2.0000   -0.8170    0.0000 C.3     1  UNL1       -0.0336
      7 C           5.5981   -0.3170    0.0000 C.3     1  UNL1       -0.0296
      8 C           6.4641    0.1830    0.0000 C.2     1  UNL1       -0.0764
      9 C           7.3301   -0.3170    0.0000 C.2     1  UNL1       -0.0847
     10 C           6.4641    1.1830    0.0000 C.3     1  UNL1       -0.0438
     11 C           8.1962    0.1830    0.0000 C.3     1  UNL1       -0.0305
     12 C           9.0622   -0.3170    0.0000 C.3     1  UNL1       -0.0248
     13 C           9.9282    0.1830    0.0000 C.2     1  UNL1       -0.0547
     14 C          10.7942   -0.3170    0.0000 C.2     1  UNL1       -0.0662
     15 C           9.9282    1.1830    0.0000 C.2     1  UNL1       -0.0955
     16 C          11.6603    0.1830    0.0000 C.2     1  UNL1       -0.0985
     17 H           4.3044   -0.7554    0.0000 H       1  UNL1        0.0625
     18 H           5.1306    0.6580    0.0000 H       1  UNL1        0.0294
     19 H           4.3335    0.6580    0.0000 H       1  UNL1        0.0294
     20 H           3.4860    0.6830    0.0000 H       1  UNL1        0.0258
     21 H           2.8660    1.3030    0.0000 H       1  UNL1        0.0258
     22 H           2.2460    0.6830    0.0000 H       1  UNL1        0.0258
     23 H           1.6900   -0.2801    0.0000 H       1  UNL1        0.0258
     24 H           1.4631   -1.1270    0.0000 H       1  UNL1        0.0258
     25 H           2.3100   -1.3539    0.0000 H       1  UNL1        0.0258
     26 H           5.1996   -0.7919    0.0000 H       1  UNL1        0.0311
     27 H           5.9966   -0.7919    0.0000 H       1  UNL1        0.0311
     28 H           7.3301   -0.9370    0.0000 H       1  UNL1        0.0572
     29 H           7.0841    1.1830    0.0000 H       1  UNL1        0.0274
     30 H           6.4641    1.8030    0.0000 H       1  UNL1        0.0274
     31 H           5.8441    1.1830    0.0000 H       1  UNL1        0.0274
     32 H           8.5947    0.6580    0.0000 H       1  UNL1        0.0311
     33 H           7.7976    0.6580    0.0000 H       1  UNL1        0.0311
     34 H           8.6636   -0.7919    0.0000 H       1  UNL1        0.0316
     35 H           9.4607   -0.7919    0.0000 H       1  UNL1        0.0316
     36 H          10.7942   -0.9370    0.0000 H       1  UNL1        0.0614
     37 H          10.4651    1.4930    0.0000 H       1  UNL1        0.0537
     38 H           9.3913    1.4930    0.0000 H       1  UNL1        0.0537
     39 H          12.1972   -0.1270    0.0000 H       1  UNL1        0.0535
     40 H          11.6603    0.8030    0.0000 H       1  UNL1        0.0535
@<TRIPOS>BOND
     1     1     2    1
     2     1     3    1
     3     2     3    1
     4     2     5    1
     5     2     6    1
     6     3     4    1
     7     3    17    1
     8     4     7    1
     9     4    18    1
    10     4    19    1
    11     5    20    1
    12     5    21    1
    13     5    22    1
    14     6    23    1
    15     6    24    1
    16     6    25    1
    17     7     8    1
    18     7    26    1
    19     7    27    1
    20     8     9    2
    21     8    10    1
    22     9    11    1
    23     9    28    1
    24    10    29    1
    25    10    30    1
    26    10    31    1
    27    11    12    1
    28    11    32    1
    29    11    33    1
    30    12    13    1
    31    12    34    1
    32    12    35    1
    33    13    14    1
    34    13    15    2
    35    14    16    2
    36    14    36    1
    37    15    37    1
    38    15    38    1
    39    16    39    1
    40    16    40    1
