@<TRIPOS>MOLECULE
IMPHY001355
 78 84 0 0 0
SMALL
GASTEIGER

@<TRIPOS>ATOM
      1 O           6.0491    4.7099    0.0000 O.3     1  UNL1       -0.3384
      2 O           6.9312    2.1684    0.0000 O.3     1  UNL1       -0.4513
      3 O           8.7014    3.1652    0.0000 O.3     1  UNL1       -0.4512
      4 O           8.7172    5.2135    0.0000 O.3     1  UNL1       -0.3829
      5 O           6.9433    6.2376    0.0000 O.3     1  UNL1       -0.3648
      6 O           4.9403    2.2024    0.0000 O.3     1  UNL1       -0.4584
      7 O           5.9109    0.4881    0.0000 O.2     1  UNL1       -0.2449
      8 O           9.5847    4.6551    0.0000 O.2     1  UNL1       -0.2449
      9 O           5.4976   -2.2325    0.0000 O.3     1  UNL1       -0.4476
     10 O           3.3422   -2.2491    0.0000 O.3     1  UNL1       -0.4411
     11 O           5.9403    2.2024    0.0000 O.2     1  UNL1       -0.2449
     12 O           6.4372   -2.1658    0.0000 O.3     1  UNL1       -0.5028
     13 O           2.3711   -0.4077    0.0000 O.3     1  UNL1       -0.5032
     14 O           9.5096   -0.4077    0.0000 O.3     1  UNL1       -0.5032
     15 O           8.4854   -2.1816    0.0000 O.3     1  UNL1       -0.5009
     16 O          13.0370    3.6151    0.0000 O.3     1  UNL1       -0.5032
     17 O          11.2704    0.6353    0.0000 O.3     1  UNL1       -0.5032
     18 O          13.0139    1.6152    0.0000 O.3     1  UNL1       -0.5009
     19 O           2.3121   -4.1592    0.0000 O.3     1  UNL1       -0.5007
     20 O           3.3805   -6.0098    0.0000 O.3     1  UNL1       -0.5008
     21 O           5.5172   -5.9933    0.0000 O.3     1  UNL1       -0.5031
     22 C           6.9312    3.1684    0.0000 C.3     1  UNL1        0.1718
     23 C           7.8412    3.6752    0.0000 C.3     1  UNL1        0.1730
     24 C           6.0652    3.6684    0.0000 C.3     1  UNL1        0.1361
     25 C           7.8492    4.7168    0.0000 C.3     1  UNL1        0.1460
     26 C           6.9472    5.2376    0.0000 C.3     1  UNL1        0.1866
     27 C           5.1992    3.1684    0.0000 C.3     1  UNL1        0.1226
     28 C           6.4403    1.3364    0.0000 C.2     1  UNL1        0.3405
     29 C           9.5732    3.6552    0.0000 C.2     1  UNL1        0.3399
     30 C           6.9403    0.4704    0.0000 C.ar    1  UNL1        0.0740
     31 C           6.4403   -0.3956    0.0000 C.ar    1  UNL1        0.0458
     32 C           5.4403   -0.3956    0.0000 C.ar    1  UNL1        0.0467
     33 C           5.4403    1.3364    0.0000 C.2     1  UNL1        0.3401
     34 C           4.9403    0.4704    0.0000 C.ar    1  UNL1        0.0740
     35 C           4.9335   -1.3056    0.0000 C.ar    1  UNL1        0.1829
     36 C          10.4333    3.1452    0.0000 C.ar    1  UNL1        0.0661
     37 C           7.9818    0.4864    0.0000 C.ar    1  UNL1       -0.0017
     38 C           6.9472   -1.3056    0.0000 C.ar    1  UNL1        0.1708
     39 C           3.8988    0.4864    0.0000 C.ar    1  UNL1       -0.0017
     40 C           3.8919   -1.3137    0.0000 C.ar    1  UNL1        0.2125
     41 C           3.3711   -0.4116    0.0000 C.ar    1  UNL1        0.1636
     42 C           8.5096   -0.4116    0.0000 C.ar    1  UNL1        0.1628
     43 C           7.9888   -1.3137    0.0000 C.ar    1  UNL1        0.2012
     44 C          10.4218    2.1453    0.0000 C.ar    1  UNL1       -0.0023
     45 C          11.3051    3.6351    0.0000 C.ar    1  UNL1       -0.0023
     46 C           4.9696   -3.1804    0.0000 C.ar    1  UNL1        0.1780
     47 C           3.8847   -3.1887    0.0000 C.ar    1  UNL1        0.2158
     48 C          12.1653    3.1252    0.0000 C.ar    1  UNL1        0.1628
     49 C          11.2820    1.6353    0.0000 C.ar    1  UNL1        0.1628
     50 C          12.1537    2.1252    0.0000 C.ar    1  UNL1        0.2006
     51 C           3.3121   -4.1631    0.0000 C.ar    1  UNL1        0.2089
     52 C           5.5572   -4.1458    0.0000 C.ar    1  UNL1        0.0297
     53 C           3.8771   -5.1418    0.0000 C.ar    1  UNL1        0.2046
     54 C           5.0073   -5.1331    0.0000 C.ar    1  UNL1        0.1657
     55 H           7.6640    2.7377    0.0000 H       1  UNL1        0.0800
     56 H           8.3811    3.9800    0.0000 H       1  UNL1        0.0801
     57 H           5.3258    4.0877    0.0000 H       1  UNL1        0.0670
     58 H           7.8504    5.3368    0.0000 H       1  UNL1        0.0683
     59 H           6.4084    5.5445    0.0000 H       1  UNL1        0.0936
     60 H           5.0387    3.7672    0.0000 H       1  UNL1        0.0725
     61 H           4.5792    3.1684    0.0000 H       1  UNL1        0.0725
     62 H           8.7196    5.8334    0.0000 H       1  UNL1        0.2102
     63 H           6.4052    6.5455    0.0000 H       1  UNL1        0.2126
     64 H           8.2856    1.0269    0.0000 H       1  UNL1        0.0664
     65 H           3.5951    1.0269    0.0000 H       1  UNL1        0.0664
     66 H           9.8813    1.8415    0.0000 H       1  UNL1        0.0663
     67 H          11.3123    4.2551    0.0000 H       1  UNL1        0.0663
     68 H           6.7410   -2.7063    0.0000 H       1  UNL1        0.2923
     69 H           6.1771   -4.1338    0.0000 H       1  UNL1        0.0693
     70 H           2.0632    0.1304    0.0000 H       1  UNL1        0.2923
     71 H           9.8175    0.1304    0.0000 H       1  UNL1        0.2923
     72 H           9.1054   -2.1840    0.0000 H       1  UNL1        0.2924
     73 H          13.0442    4.2351    0.0000 H       1  UNL1        0.2923
     74 H          11.8037    0.3192    0.0000 H       1  UNL1        0.2923
     75 H           2.0000   -4.6950    0.0000 H       1  UNL1        0.2924
     76 H          13.5544    1.9190    0.0000 H       1  UNL1        0.2924
     77 H           3.6926   -6.5455    0.0000 H       1  UNL1        0.2924
     78 H           6.1372   -5.9862    0.0000 H       1  UNL1        0.2923
@<TRIPOS>BOND
     1     1    24    1
     2     1    26    1
     3     2    22    1
     4     2    28    1
     5    23     3    1
     6     3    29    1
     7    25     4    1
     8     4    62    1
     9    26     5    1
    10     5    63    1
    11     6    27    1
    12     6    33    1
    13     7    28    2
    14     8    29    2
    15     9    35    1
    16     9    46    1
    17    10    40    1
    18    10    47    1
    19    11    33    2
    20    12    38    1
    21    12    68    1
    22    13    41    1
    23    13    70    1
    24    14    42    1
    25    14    71    1
    26    15    43    1
    27    15    72    1
    28    16    48    1
    29    16    73    1
    30    17    49    1
    31    17    74    1
    32    18    50    1
    33    18    76    1
    34    19    51    1
    35    19    75    1
    36    20    53    1
    37    20    77    1
    38    21    54    1
    39    21    78    1
    40    22    23    1
    41    22    24    1
    42    22    55    1
    43    23    25    1
    44    23    56    1
    45    24    27    1
    46    24    57    1
    47    25    26    1
    48    25    58    1
    49    26    59    1
    50    27    60    1
    51    27    61    1
    52    28    30    1
    53    29    36    1
    54    30    31   ar
    55    30    37   ar
    56    31    32    1
    57    31    38   ar
    58    32    34   ar
    59    32    35   ar
    60    33    34    1
    61    34    39   ar
    62    35    40   ar
    63    36    44   ar
    64    36    45   ar
    65    37    42   ar
    66    37    64    1
    67    38    43   ar
    68    39    41   ar
    69    39    65    1
    70    40    41   ar
    71    42    43   ar
    72    44    49   ar
    73    44    66    1
    74    45    48   ar
    75    45    67    1
    76    46    47   ar
    77    46    52   ar
    78    47    51   ar
    79    48    50   ar
    80    49    50   ar
    81    51    53   ar
    82    52    54   ar
    83    52    69    1
    84    53    54   ar
