@<TRIPOS>MOLECULE
IMPHY011293
 46 49 0 0 0
SMALL
GASTEIGER

@<TRIPOS>ATOM
      1 O           4.7950    1.4215    0.0000 O.3     1  UNL1       -0.3914
      2 O           8.6500    2.1767    0.0000 O.2     1  UNL1       -0.2968
      3 O           2.0000   -2.1309    0.0000 O.2     1  UNL1       -0.2879
      4 C           6.5271   -0.5785    0.0000 C.3     1  UNL1       -0.0308
      5 C           7.3931   -0.0785    0.0000 C.3     1  UNL1       -0.0253
      6 C           5.6610   -0.0785    0.0000 C.3     1  UNL1        0.0007
      7 C           7.3931    0.9215    0.0000 C.3     1  UNL1        0.0316
      8 C           5.6610    0.9215    0.0000 C.3     1  UNL1        0.0603
      9 C           4.7510   -0.5854    0.0000 C.3     1  UNL1        0.0131
     10 C           6.5271    1.4215    0.0000 C.3     1  UNL1       -0.0142
     11 C           8.3393   -0.3833    0.0000 C.3     1  UNL1       -0.0424
     12 C           6.5431   -1.6200    0.0000 C.3     1  UNL1       -0.0458
     13 C           8.3393    1.2262    0.0000 C.2     1  UNL1        0.1396
     14 C           8.9229    0.4215    0.0000 C.3     1  UNL1        0.0067
     15 C           4.7430   -1.6270    0.0000 C.2     1  UNL1       -0.0559
     16 C           5.6451   -2.1478    0.0000 C.3     1  UNL1       -0.0302
     17 C           7.3931    1.9215    0.0000 C.3     1  UNL1       -0.0525
     18 C           4.7587    0.4146    0.0000 C.3     1  UNL1       -0.0520
     19 C           3.8242   -0.0213    0.0000 C.2     1  UNL1       -0.0701
     20 C           3.8076   -2.1767    0.0000 C.2     1  UNL1       -0.0149
     21 C           2.8763   -0.5493    0.0000 C.2     1  UNL1       -0.0180
     22 C           2.8680   -1.6342    0.0000 C.2     1  UNL1        0.1787
     23 H           7.2664   -0.9979    0.0000 H       1  UNL1        0.0308
     24 H           7.4830   -0.9238    0.0000 H       1  UNL1        0.0313
     25 H           6.3972    0.3465    0.0000 H       1  UNL1        0.0340
     26 H           5.6610    1.5415    0.0000 H       1  UNL1        0.0597
     27 H           6.9256    1.8964    0.0000 H       1  UNL1        0.0300
     28 H           6.1285    1.8964    0.0000 H       1  UNL1        0.0300
     29 H           8.0883   -0.9502    0.0000 H       1  UNL1        0.0272
     30 H           8.8767   -0.6925    0.0000 H       1  UNL1        0.0272
     31 H           6.7612   -2.2004    0.0000 H       1  UNL1        0.0271
     32 H           7.1523   -1.5046    0.0000 H       1  UNL1        0.0271
     33 H           9.3838    0.0067    0.0000 H       1  UNL1        0.0342
     34 H           9.3838    0.8362    0.0000 H       1  UNL1        0.0342
     35 H           5.2478   -2.6238    0.0000 H       1  UNL1        0.0310
     36 H           6.0460   -2.6207    0.0000 H       1  UNL1        0.0310
     37 H           8.0131    1.9215    0.0000 H       1  UNL1        0.0239
     38 H           7.3931    2.5415    0.0000 H       1  UNL1        0.0239
     39 H           6.7731    1.9215    0.0000 H       1  UNL1        0.0239
     40 H           5.3787    0.4098    0.0000 H       1  UNL1        0.0241
     41 H           4.7635    1.0346    0.0000 H       1  UNL1        0.0241
     42 H           4.1388    0.4194    0.0000 H       1  UNL1        0.0241
     43 H           3.8361    0.5986    0.0000 H       1  UNL1        0.0582
     44 H           4.7950    2.0415    0.0000 H       1  UNL1        0.2098
     45 H           3.8100   -2.7967    0.0000 H       1  UNL1        0.0655
     46 H           2.3430   -0.2331    0.0000 H       1  UNL1        0.0653
@<TRIPOS>BOND
     1     8     1    1
     2     1    44    1
     3     2    13    2
     4     3    22    2
     5     4     5    1
     6     4     6    1
     7     4    12    1
     8     4    23    1
     9     5     7    1
    10     5    11    1
    11     5    24    1
    12     6     8    1
    13     6     9    1
    14     6    25    1
    15     7    10    1
    16     7    13    1
    17     7    17    1
    18     8    10    1
    19     8    26    1
    20     9    15    1
    21     9    18    1
    22     9    19    1
    23    10    27    1
    24    10    28    1
    25    11    14    1
    26    11    29    1
    27    11    30    1
    28    12    16    1
    29    12    31    1
    30    12    32    1
    31    13    14    1
    32    14    33    1
    33    14    34    1
    34    15    16    1
    35    15    20    2
    36    16    35    1
    37    16    36    1
    38    17    37    1
    39    17    38    1
    40    17    39    1
    41    18    40    1
    42    18    41    1
    43    18    42    1
    44    19    21    2
    45    19    43    1
    46    20    22    1
    47    20    45    1
    48    21    22    1
    49    21    46    1
