@<TRIPOS>MOLECULE
IMPHY014121
 51 52 0 0 0
SMALL
GASTEIGER

@<TRIPOS>ATOM
      1 O           6.8671   -0.5950    0.0000 O.3     1  UNL1       -0.3409
      2 O           5.1350   -0.5950    0.0000 O.3     1  UNL1       -0.3405
      3 O           5.1350    2.4050    0.0000 O.3     1  UNL1       -0.3770
      4 O           6.8671    3.4050    0.0000 O.3     1  UNL1       -0.3743
      5 O           8.5991    2.4050    0.0000 O.3     1  UNL1       -0.3847
      6 O           6.8671   -2.5950    0.0000 O.3     1  UNL1       -0.3841
      7 O           5.1350   -3.5950    0.0000 O.3     1  UNL1       -0.3864
      8 O           3.4030   -2.5950    0.0000 O.3     1  UNL1       -0.3865
      9 O           2.5369   -1.0950    0.0000 O.3     1  UNL1       -0.3924
     10 N           8.5991   -1.5950    0.0000 N.1     1  UNL1       -0.1915
     11 C           6.8671    0.4050    0.0000 C.3     1  UNL1        0.0886
     12 C           6.0010    0.9050    0.0000 C.3     1  UNL1        0.0064
     13 C           6.0010    1.9050    0.0000 C.3     1  UNL1        0.0898
     14 C           6.8671    2.4050    0.0000 C.3     1  UNL1        0.1141
     15 C           6.0010   -1.0950    0.0000 C.3     1  UNL1        0.1886
     16 C           7.7331    1.9050    0.0000 C.3     1  UNL1        0.1080
     17 C           6.0010   -2.0950    0.0000 C.3     1  UNL1        0.1341
     18 C           5.1350   -2.5950    0.0000 C.3     1  UNL1        0.1141
     19 C           7.7331    0.9050    0.0000 C.2     1  UNL1       -0.0002
     20 C           4.2690   -2.0950    0.0000 C.3     1  UNL1        0.1119
     21 C           4.2690   -1.0950    0.0000 C.3     1  UNL1        0.1130
     22 C           3.4030   -0.5950    0.0000 C.3     1  UNL1        0.0730
     23 C           8.5991    0.4050    0.0000 C.2     1  UNL1        0.0196
     24 C           4.2690    1.9050    0.0000 C.3     1  UNL1        0.0369
     25 C           6.0010    3.9050    0.0000 C.3     1  UNL1        0.0370
     26 C           8.5991   -0.5950    0.0000 C.1     1  UNL1        0.0915
     27 H           7.4040    0.0950    0.0000 H       1  UNL1        0.0646
     28 H           5.3905    1.0127    0.0000 H       1  UNL1        0.0319
     29 H           5.7890    0.3224    0.0000 H       1  UNL1        0.0319
     30 H           6.0010    2.5250    0.0000 H       1  UNL1        0.0623
     31 H           7.4040    2.7150    0.0000 H       1  UNL1        0.0651
     32 H           6.5380   -1.4050    0.0000 H       1  UNL1        0.0938
     33 H           8.2700    1.5950    0.0000 H       1  UNL1        0.0668
     34 H           6.0010   -2.7150    0.0000 H       1  UNL1        0.0671
     35 H           4.5981   -2.9050    0.0000 H       1  UNL1        0.0648
     36 H           4.2690   -2.7150    0.0000 H       1  UNL1        0.0647
     37 H           4.2690   -0.4750    0.0000 H       1  UNL1        0.0647
     38 H           3.8015   -0.1201    0.0000 H       1  UNL1        0.0584
     39 H           3.0044   -0.1201    0.0000 H       1  UNL1        0.0584
     40 H           9.1360    0.7150    0.0000 H       1  UNL1        0.0734
     41 H           8.5991    3.0250    0.0000 H       1  UNL1        0.2103
     42 H           6.8671   -3.2150    0.0000 H       1  UNL1        0.2101
     43 H           4.5981   -3.9050    0.0000 H       1  UNL1        0.2100
     44 H           3.4030   -3.2150    0.0000 H       1  UNL1        0.2100
     45 H           3.9590    2.4419    0.0000 H       1  UNL1        0.0524
     46 H           3.7320    1.5950    0.0000 H       1  UNL1        0.0524
     47 H           4.5790    1.3681    0.0000 H       1  UNL1        0.0524
     48 H           6.3110    4.4419    0.0000 H       1  UNL1        0.0524
     49 H           5.4641    4.2150    0.0000 H       1  UNL1        0.0524
     50 H           5.6910    3.3681    0.0000 H       1  UNL1        0.0524
     51 H           2.0000   -0.7850    0.0000 H       1  UNL1        0.2095
@<TRIPOS>BOND
     1    11     1    1
     2    15     1    1
     3     2    15    1
     4     2    21    1
     5    13     3    1
     6     3    24    1
     7    14     4    1
     8     4    25    1
     9    16     5    1
    10     5    41    1
    11    17     6    1
    12     6    42    1
    13    18     7    1
    14     7    43    1
    15    20     8    1
    16     8    44    1
    17     9    22    1
    18     9    51    1
    19    10    26    3
    20    11    12    1
    21    11    19    1
    22    11    27    1
    23    12    13    1
    24    12    28    1
    25    12    29    1
    26    13    14    1
    27    13    30    1
    28    14    16    1
    29    14    31    1
    30    15    17    1
    31    15    32    1
    32    16    19    1
    33    16    33    1
    34    17    18    1
    35    17    34    1
    36    18    20    1
    37    18    35    1
    38    19    23    2
    39    20    21    1
    40    20    36    1
    41    21    22    1
    42    21    37    1
    43    22    38    1
    44    22    39    1
    45    23    26    1
    46    23    40    1
    47    24    45    1
    48    24    46    1
    49    24    47    1
    50    25    48    1
    51    25    49    1
    52    25    50    1
