@<TRIPOS>MOLECULE
IMPHY008313
 126 125 0 0 0
SMALL
GASTEIGER

@<TRIPOS>ATOM
      1 O          28.8468    4.1900    0.0000 O.3     1  UNL1       -0.3910
      2 C           6.3301   -3.8100    0.0000 C.3     1  UNL1       -0.0439
      3 C           7.1962   -3.3100    0.0000 C.3     1  UNL1       -0.0505
      4 C           9.7942   -3.8100    0.0000 C.3     1  UNL1       -0.0439
      5 C           8.0622   -3.8100    0.0000 C.3     1  UNL1       -0.0526
      6 C           8.9282   -3.3100    0.0000 C.3     1  UNL1       -0.0505
      7 C           5.4641   -3.3100    0.0000 C.3     1  UNL1       -0.0505
      8 C          10.6603   -3.3100    0.0000 C.3     1  UNL1       -0.0502
      9 C           4.5981   -3.8100    0.0000 C.3     1  UNL1       -0.0526
     10 C           3.7320   -3.3100    0.0000 C.3     1  UNL1       -0.0507
     11 C           6.3301   -4.8100    0.0000 C.3     1  UNL1       -0.0624
     12 C          11.5263   -3.8100    0.0000 C.3     1  UNL1       -0.0491
     13 C           9.7942   -4.8100    0.0000 C.3     1  UNL1       -0.0624
     14 C           2.8660   -3.8100    0.0000 C.3     1  UNL1       -0.0467
     15 C          12.3923   -3.3100    0.0000 C.3     1  UNL1       -0.0320
     16 C           2.0000   -3.3100    0.0000 C.3     1  UNL1       -0.0627
     17 C           2.8660   -4.8100    0.0000 C.3     1  UNL1       -0.0627
     18 C          13.2583   -3.8100    0.0000 C.2     1  UNL1       -0.0765
     19 C          14.1244   -3.3100    0.0000 C.2     1  UNL1       -0.0847
     20 C          13.2583   -4.8100    0.0000 C.3     1  UNL1       -0.0438
     21 C          14.9904   -3.8100    0.0000 C.3     1  UNL1       -0.0308
     22 C          15.8564   -3.3100    0.0000 C.3     1  UNL1       -0.0286
     23 C          16.7224   -3.8100    0.0000 C.2     1  UNL1       -0.0762
     24 C          17.5885   -3.3100    0.0000 C.2     1  UNL1       -0.0847
     25 C          16.7224   -4.8100    0.0000 C.3     1  UNL1       -0.0438
     26 C          17.5885   -2.3100    0.0000 C.3     1  UNL1       -0.0308
     27 C          18.4545   -1.8100    0.0000 C.3     1  UNL1       -0.0286
     28 C          18.4545   -0.8100    0.0000 C.2     1  UNL1       -0.0762
     29 C          20.1865   -0.8100    0.0000 C.3     1  UNL1       -0.0308
     30 C          19.3205   -0.3100    0.0000 C.2     1  UNL1       -0.0847
     31 C          21.0526   -0.3100    0.0000 C.3     1  UNL1       -0.0286
     32 C          21.9186   -0.8100    0.0000 C.2     1  UNL1       -0.0762
     33 C          17.5885   -0.3100    0.0000 C.3     1  UNL1       -0.0438
     34 C          22.7846    0.6900    0.0000 C.3     1  UNL1       -0.0308
     35 C          23.6506    1.1900    0.0000 C.3     1  UNL1       -0.0286
     36 C          22.7846   -0.3100    0.0000 C.2     1  UNL1       -0.0847
     37 C          23.6506    2.1900    0.0000 C.2     1  UNL1       -0.0762
     38 C          21.9186   -1.8100    0.0000 C.3     1  UNL1       -0.0438
     39 C          25.3827    2.1900    0.0000 C.3     1  UNL1       -0.0308
     40 C          24.5167    2.6900    0.0000 C.2     1  UNL1       -0.0847
     41 C          26.2487    2.6900    0.0000 C.3     1  UNL1       -0.0285
     42 C          22.7846    2.6900    0.0000 C.3     1  UNL1       -0.0438
     43 C          27.1147    2.1900    0.0000 C.2     1  UNL1       -0.0741
     44 C          27.1147    1.1900    0.0000 C.3     1  UNL1       -0.0437
     45 C          27.9808    2.6900    0.0000 C.2     1  UNL1       -0.0600
     46 C          27.9808    3.6900    0.0000 C.3     1  UNL1        0.0626
     47 H           7.0662   -4.2350    0.0000 H       1  UNL1        0.0298
     48 H           7.5947   -2.8350    0.0000 H       1  UNL1        0.0268
     49 H           6.7976   -2.8350    0.0000 H       1  UNL1        0.0268
     50 H           9.0581   -4.2350    0.0000 H       1  UNL1        0.0298
     51 H           7.6636   -4.2850    0.0000 H       1  UNL1        0.0265
     52 H           8.4607   -4.2850    0.0000 H       1  UNL1        0.0265
     53 H           9.3267   -2.8350    0.0000 H       1  UNL1        0.0268
     54 H           8.5297   -2.8350    0.0000 H       1  UNL1        0.0268
     55 H           5.8626   -2.8350    0.0000 H       1  UNL1        0.0268
     56 H           5.0656   -2.8350    0.0000 H       1  UNL1        0.0268
     57 H          11.0588   -2.8350    0.0000 H       1  UNL1        0.0268
     58 H          10.2617   -2.8350    0.0000 H       1  UNL1        0.0268
     59 H           4.1996   -4.2850    0.0000 H       1  UNL1        0.0265
     60 H           4.9966   -4.2850    0.0000 H       1  UNL1        0.0265
     61 H           4.1306   -2.8350    0.0000 H       1  UNL1        0.0268
     62 H           3.3335   -2.8350    0.0000 H       1  UNL1        0.0268
     63 H           5.7101   -4.8100    0.0000 H       1  UNL1        0.0232
     64 H           6.3301   -5.4300    0.0000 H       1  UNL1        0.0232
     65 H           6.9501   -4.8100    0.0000 H       1  UNL1        0.0232
     66 H          11.1278   -4.2850    0.0000 H       1  UNL1        0.0268
     67 H          11.9248   -4.2850    0.0000 H       1  UNL1        0.0268
     68 H           9.1742   -4.8100    0.0000 H       1  UNL1        0.0232
     69 H           9.7942   -5.4300    0.0000 H       1  UNL1        0.0232
     70 H          10.4142   -4.8100    0.0000 H       1  UNL1        0.0232
     71 H           2.8660   -3.1900    0.0000 H       1  UNL1        0.0295
     72 H          12.7908   -2.8350    0.0000 H       1  UNL1        0.0310
     73 H          11.9938   -2.8350    0.0000 H       1  UNL1        0.0310
     74 H           2.3100   -2.7731    0.0000 H       1  UNL1        0.0232
     75 H           1.4631   -3.0000    0.0000 H       1  UNL1        0.0232
     76 H           1.6900   -3.8469    0.0000 H       1  UNL1        0.0232
     77 H           2.2460   -4.8100    0.0000 H       1  UNL1        0.0232
     78 H           2.8660   -5.4300    0.0000 H       1  UNL1        0.0232
     79 H           3.4860   -4.8100    0.0000 H       1  UNL1        0.0232
     80 H          14.1244   -2.6900    0.0000 H       1  UNL1        0.0572
     81 H          12.6383   -4.8100    0.0000 H       1  UNL1        0.0274
     82 H          13.2583   -5.4300    0.0000 H       1  UNL1        0.0274
     83 H          13.8783   -4.8100    0.0000 H       1  UNL1        0.0274
     84 H          14.5919   -4.2850    0.0000 H       1  UNL1        0.0310
     85 H          15.3889   -4.2850    0.0000 H       1  UNL1        0.0310
     86 H          16.2549   -2.8350    0.0000 H       1  UNL1        0.0313
     87 H          15.4579   -2.8350    0.0000 H       1  UNL1        0.0313
     88 H          18.1254   -3.6200    0.0000 H       1  UNL1        0.0572
     89 H          16.1024   -4.8100    0.0000 H       1  UNL1        0.0274
     90 H          16.7224   -5.4300    0.0000 H       1  UNL1        0.0274
     91 H          17.3424   -4.8100    0.0000 H       1  UNL1        0.0274
     92 H          17.3764   -1.7274    0.0000 H       1  UNL1        0.0310
     93 H          16.9779   -2.4177    0.0000 H       1  UNL1        0.0310
     94 H          18.6665   -2.3926    0.0000 H       1  UNL1        0.0313
     95 H          19.0651   -1.7023    0.0000 H       1  UNL1        0.0313
     96 H          19.7880   -1.2850    0.0000 H       1  UNL1        0.0310
     97 H          20.5851   -1.2850    0.0000 H       1  UNL1        0.0310
     98 H          19.3205    0.3100    0.0000 H       1  UNL1        0.0572
     99 H          21.4511    0.1649    0.0000 H       1  UNL1        0.0313
    100 H          20.6540    0.1649    0.0000 H       1  UNL1        0.0313
    101 H          17.8985    0.2269    0.0000 H       1  UNL1        0.0274
    102 H          17.0515   -0.0000    0.0000 H       1  UNL1        0.0274
    103 H          17.2785   -0.8469    0.0000 H       1  UNL1        0.0274
    104 H          22.5726    1.2726    0.0000 H       1  UNL1        0.0310
    105 H          22.1740    0.5823    0.0000 H       1  UNL1        0.0310
    106 H          23.8627    0.6074    0.0000 H       1  UNL1        0.0313
    107 H          24.2612    1.2977    0.0000 H       1  UNL1        0.0313
    108 H          23.3215   -0.6200    0.0000 H       1  UNL1        0.0572
    109 H          21.2986   -1.8100    0.0000 H       1  UNL1        0.0274
    110 H          21.9186   -2.4300    0.0000 H       1  UNL1        0.0274
    111 H          22.5386   -1.8100    0.0000 H       1  UNL1        0.0274
    112 H          24.9842    1.7150    0.0000 H       1  UNL1        0.0310
    113 H          25.7812    1.7150    0.0000 H       1  UNL1        0.0310
    114 H          24.5167    3.3100    0.0000 H       1  UNL1        0.0572
    115 H          26.6472    3.1650    0.0000 H       1  UNL1        0.0313
    116 H          25.8502    3.1650    0.0000 H       1  UNL1        0.0313
    117 H          23.0946    3.2269    0.0000 H       1  UNL1        0.0274
    118 H          22.2477    3.0000    0.0000 H       1  UNL1        0.0274
    119 H          22.4746    2.1531    0.0000 H       1  UNL1        0.0274
    120 H          26.4947    1.1900    0.0000 H       1  UNL1        0.0274
    121 H          27.1147    0.5700    0.0000 H       1  UNL1        0.0274
    122 H          27.7347    1.1900    0.0000 H       1  UNL1        0.0274
    123 H          28.5177    2.3800    0.0000 H       1  UNL1        0.0594
    124 H          27.7687    4.2726    0.0000 H       1  UNL1        0.0601
    125 H          27.3702    3.5823    0.0000 H       1  UNL1        0.0601
    126 H          28.8468    4.8100    0.0000 H       1  UNL1        0.2098
@<TRIPOS>BOND
     1     1    46    1
     2     1   126    1
     3     2     3    1
     4     2     7    1
     5     2    11    1
     6     2    47    1
     7     3     5    1
     8     3    48    1
     9     3    49    1
    10     4     6    1
    11     4     8    1
    12     4    13    1
    13     4    50    1
    14     5     6    1
    15     5    51    1
    16     5    52    1
    17     6    53    1
    18     6    54    1
    19     7     9    1
    20     7    55    1
    21     7    56    1
    22     8    12    1
    23     8    57    1
    24     8    58    1
    25     9    10    1
    26     9    59    1
    27     9    60    1
    28    10    14    1
    29    10    61    1
    30    10    62    1
    31    11    63    1
    32    11    64    1
    33    11    65    1
    34    12    15    1
    35    12    66    1
    36    12    67    1
    37    13    68    1
    38    13    69    1
    39    13    70    1
    40    14    16    1
    41    14    17    1
    42    14    71    1
    43    15    18    1
    44    15    72    1
    45    15    73    1
    46    16    74    1
    47    16    75    1
    48    16    76    1
    49    17    77    1
    50    17    78    1
    51    17    79    1
    52    18    19    2
    53    18    20    1
    54    19    21    1
    55    19    80    1
    56    20    81    1
    57    20    82    1
    58    20    83    1
    59    21    22    1
    60    21    84    1
    61    21    85    1
    62    22    23    1
    63    22    86    1
    64    22    87    1
    65    23    24    2
    66    23    25    1
    67    24    26    1
    68    24    88    1
    69    25    89    1
    70    25    90    1
    71    25    91    1
    72    26    27    1
    73    26    92    1
    74    26    93    1
    75    27    28    1
    76    27    94    1
    77    27    95    1
    78    28    30    2
    79    28    33    1
    80    29    30    1
    81    29    31    1
    82    29    96    1
    83    29    97    1
    84    30    98    1
    85    31    32    1
    86    31    99    1
    87    31   100    1
    88    32    36    2
    89    32    38    1
    90    33   101    1
    91    33   102    1
    92    33   103    1
    93    34    35    1
    94    34    36    1
    95    34   104    1
    96    34   105    1
    97    35    37    1
    98    35   106    1
    99    35   107    1
   100    36   108    1
   101    37    40    2
   102    37    42    1
   103    38   109    1
   104    38   110    1
   105    38   111    1
   106    39    40    1
   107    39    41    1
   108    39   112    1
   109    39   113    1
   110    40   114    1
   111    41    43    1
   112    41   115    1
   113    41   116    1
   114    42   117    1
   115    42   118    1
   116    42   119    1
   117    43    44    1
   118    43    45    2
   119    44   120    1
   120    44   121    1
   121    44   122    1
   122    45    46    1
   123    45   123    1
   124    46   124    1
   125    46   125    1
