@<TRIPOS>MOLECULE
IMPHY016605
 40 43 0 0 0
SMALL
GASTEIGER

@<TRIPOS>ATOM
      1 O           2.4076    0.1528    0.0000 O.3     1  UNL1       -0.3609
      2 C           3.3743   -0.0807    0.0000 C.3     1  UNL1        0.1054
      3 C           4.2753   -0.5146    0.0000 C.3     1  UNL1        0.0106
      4 C           2.6892   -0.8010    0.0000 C.3     1  UNL1        0.0970
      5 C           4.3821    0.6621    0.0000 C.3     1  UNL1       -0.0234
      6 C           3.7753    1.6760    0.0000 C.3     1  UNL1       -0.0326
      7 C           3.1518    0.8942    0.0000 C.3     1  UNL1       -0.0171
      8 C           4.1393   -1.4994    0.0000 C.3     1  UNL1       -0.0412
      9 C           5.1762   -0.0807    0.0000 C.3     1  UNL1       -0.0350
     10 C           3.1610   -1.6760    0.0000 C.3     1  UNL1       -0.0206
     11 C           4.7753    1.6760    0.0000 C.3     1  UNL1       -0.0494
     12 C           5.3988    0.8942    0.0000 C.3     1  UNL1       -0.0496
     13 C           2.0000   -1.5256    0.0000 C.3     1  UNL1       -0.0330
     14 C           5.2776    1.3836    0.0000 C.3     1  UNL1       -0.0590
     15 C           5.5020    0.4007    0.0000 C.3     1  UNL1       -0.0590
     16 C           5.9581   -0.7042    0.0000 C.3     1  UNL1       -0.0618
     17 H           3.5062    2.2346    0.0000 H       1  UNL1        0.0307
     18 H           2.7652    1.3789    0.0000 H       1  UNL1        0.0297
     19 H           2.5932    0.6252    0.0000 H       1  UNL1        0.0297
     20 H           4.1847   -2.1177    0.0000 H       1  UNL1        0.0273
     21 H           4.7589   -1.5192    0.0000 H       1  UNL1        0.0273
     22 H           5.7614    0.1240    0.0000 H       1  UNL1        0.0305
     23 H           2.5874   -1.9113    0.0000 H       1  UNL1        0.0294
     24 H           3.3347   -2.2712    0.0000 H       1  UNL1        0.0294
     25 H           5.3339    1.9450    0.0000 H       1  UNL1        0.0268
     26 H           4.6373    2.2805    0.0000 H       1  UNL1        0.0268
     27 H           5.9574    0.6252    0.0000 H       1  UNL1        0.0268
     28 H           5.7853    1.3789    0.0000 H       1  UNL1        0.0268
     29 H           1.5508   -1.0983    0.0000 H       1  UNL1        0.0258
     30 H           1.5727   -1.9749    0.0000 H       1  UNL1        0.0258
     31 H           2.4492   -1.9529    0.0000 H       1  UNL1        0.0258
     32 H           5.6666    0.9008    0.0000 H       1  UNL1        0.0235
     33 H           5.7604    1.7726    0.0000 H       1  UNL1        0.0235
     34 H           4.8886    1.8664    0.0000 H       1  UNL1        0.0235
     35 H           5.3610   -0.2031    0.0000 H       1  UNL1        0.0235
     36 H           6.1057    0.2597    0.0000 H       1  UNL1        0.0235
     37 H           5.6430    1.0044    0.0000 H       1  UNL1        0.0235
     38 H           5.5715   -1.1890    0.0000 H       1  UNL1        0.0233
     39 H           6.4428   -1.0908    0.0000 H       1  UNL1        0.0233
     40 H           6.3446   -0.2195    0.0000 H       1  UNL1        0.0233
@<TRIPOS>BOND
     1     1     2    1
     2     1     4    1
     3     2     3    1
     4     2     4    1
     5     2     7    1
     6     3     5    1
     7     3     8    1
     8     3     9    1
     9     4    10    1
    10     4    13    1
    11     5     6    1
    12     5    14    1
    13     5    15    1
    14     6     7    1
    15     6    11    1
    16     6    17    1
    17     7    18    1
    18     7    19    1
    19     8    10    1
    20     8    20    1
    21     8    21    1
    22     9    12    1
    23     9    16    1
    24     9    22    1
    25    10    23    1
    26    10    24    1
    27    11    12    1
    28    11    25    1
    29    11    26    1
    30    12    27    1
    31    12    28    1
    32    13    29    1
    33    13    30    1
    34    13    31    1
    35    14    32    1
    36    14    33    1
    37    14    34    1
    38    15    35    1
    39    15    36    1
    40    15    37    1
    41    16    38    1
    42    16    39    1
    43    16    40    1
