@<TRIPOS>MOLECULE
IMPHY007991
 215 226 0 0 0
SMALL
GASTEIGER

@<TRIPOS>ATOM
      1 O          11.3261   -1.3633    0.0000 O.3     1  UNL1       -0.3449
      2 O           9.4651  -10.6218    0.0000 O.3     1  UNL1       -0.4318
      3 O           8.5991   -9.1218    0.0000 O.2     1  UNL1       -0.2501
      4 O          13.0581   -1.3833    0.0000 O.3     1  UNL1       -0.3461
      5 O          11.3493    0.6366    0.0000 O.3     1  UNL1       -0.3378
      6 O           7.7331  -10.6218    0.0000 O.3     1  UNL1       -0.3312
      7 O          13.0928    1.6165    0.0000 O.3     1  UNL1       -0.3864
      8 O          14.8131    0.5965    0.0000 O.3     1  UNL1       -0.3869
      9 O           9.4651  -12.6218    0.0000 O.3     1  UNL1       -0.3829
     10 O           7.7331  -13.6218    0.0000 O.3     1  UNL1       -0.3864
     11 O          12.2326    2.1264    0.0000 O.3     1  UNL1       -0.3431
     12 O           6.0010  -12.6218    0.0000 O.3     1  UNL1       -0.3865
     13 O           6.0010   -9.6218    0.0000 O.3     1  UNL1       -0.3460
     14 O           9.6289    1.6565    0.0000 O.3     1  UNL1       -0.3841
     15 O           9.6520    3.6564    0.0000 O.3     1  UNL1       -0.3401
     16 O          11.3955    4.6363    0.0000 O.3     1  UNL1       -0.3866
     17 O           5.1350   -8.1218    0.0000 O.3     1  UNL1       -0.3405
     18 O          10.5353    5.1463    0.0000 O.3     1  UNL1       -0.3460
     19 O           4.2690  -10.6218    0.0000 O.3     1  UNL1       -0.3841
     20 O           7.9316    4.6763    0.0000 O.3     1  UNL1       -0.3841
     21 O           2.5369   -9.6218    0.0000 O.3     1  UNL1       -0.3864
     22 O           2.5369   -7.6218    0.0000 O.3     1  UNL1       -0.3865
     23 O           7.9548    6.6762    0.0000 O.3     1  UNL1       -0.3864
     24 O           9.6983    7.6561    0.0000 O.3     1  UNL1       -0.3405
     25 O           3.4030   -6.1218    0.0000 O.3     1  UNL1       -0.3924
     26 O          10.5816    9.1460    0.0000 O.3     1  UNL1       -0.3405
     27 O          11.4186    6.6362    0.0000 O.3     1  UNL1       -0.3841
     28 O          13.1621    7.6161    0.0000 O.3     1  UNL1       -0.3864
     29 O          13.1853    9.6159    0.0000 O.3     1  UNL1       -0.3402
     30 O          10.6047   11.1459    0.0000 O.3     1  UNL1       -0.3924
     31 O          12.3366   11.1258    0.0000 O.3     1  UNL1       -0.3461
     32 O          14.9288   10.5958    0.0000 O.3     1  UNL1       -0.3841
     33 O          14.9519   12.5957    0.0000 O.3     1  UNL1       -0.3864
     34 O          13.2315   13.6157    0.0000 O.3     1  UNL1       -0.3869
     35 C          10.3708   -6.0528    0.0000 C.3     1  UNL1       -0.0194
     36 C          11.2406   -5.5595    0.0000 C.3     1  UNL1       -0.0257
     37 C          11.2647   -4.5181    0.0000 C.3     1  UNL1       -0.0250
     38 C          10.3631   -7.0528    0.0000 C.3     1  UNL1       -0.0051
     39 C          10.3708   -3.9835    0.0000 C.3     1  UNL1       -0.0278
     40 C           9.4647   -5.5390    0.0000 C.3     1  UNL1       -0.0463
     41 C          10.3708   -2.8985    0.0000 C.3     1  UNL1       -0.0052
     42 C           9.4647   -4.4973    0.0000 C.3     1  UNL1       -0.0486
     43 C          11.2252   -7.5594    0.0000 C.2     1  UNL1       -0.0629
     44 C          11.2332   -8.6010    0.0000 C.3     1  UNL1       -0.0031
     45 C          12.1028   -6.0662    0.0000 C.3     1  UNL1       -0.0306
     46 C          12.2206   -4.0049    0.0000 C.3     1  UNL1       -0.0447
     47 C           9.4492   -7.5526    0.0000 C.3     1  UNL1       -0.0424
     48 C          10.3312   -9.1218    0.0000 C.3     1  UNL1        0.0744
     49 C           9.3846   -6.2188    0.0000 C.3     1  UNL1       -0.0585
     50 C          11.3146   -2.3632    0.0000 C.3     1  UNL1        0.0672
     51 C           9.4331   -8.5941    0.0000 C.3     1  UNL1       -0.0359
     52 C          12.1229   -5.0314    0.0000 C.3     1  UNL1       -0.0590
     53 C          12.0951   -7.0661    0.0000 C.2     1  UNL1       -0.0836
     54 C          12.2457   -2.9202    0.0000 C.3     1  UNL1       -0.0255
     55 C           9.3796   -6.8715    0.0000 C.3     1  UNL1       -0.0553
     56 C          12.1811   -9.1290    0.0000 C.3     1  UNL1       -0.0403
     57 C          10.3144  -10.2067    0.0000 C.3     1  UNL1       -0.0362
     58 C          12.1895  -10.2139    0.0000 C.3     1  UNL1       -0.0343
     59 C           9.8741   -2.0305    0.0000 C.3     1  UNL1       -0.0572
     60 C           9.3708   -2.8946    0.0000 C.3     1  UNL1       -0.0572
     61 C          11.2499  -10.7564    0.0000 C.3     1  UNL1       -0.0468
     62 C           9.4651   -9.6218    0.0000 C.2     1  UNL1        0.3161
     63 C          13.1895  -10.2101    0.0000 C.3     1  UNL1       -0.0598
     64 C          12.6928  -11.0780    0.0000 C.3     1  UNL1       -0.0598
     65 C          12.1979   -0.8734    0.0000 C.3     1  UNL1        0.1882
     66 C          12.2094    0.1266    0.0000 C.3     1  UNL1        0.1406
     67 C           8.5991  -11.1218    0.0000 C.3     1  UNL1        0.2337
     68 C          13.0812    0.6165    0.0000 C.3     1  UNL1        0.1141
     69 C          13.9298   -0.8934    0.0000 C.3     1  UNL1        0.0792
     70 C          13.9414    0.1065    0.0000 C.3     1  UNL1        0.1069
     71 C           8.5991  -12.1218    0.0000 C.3     1  UNL1        0.1455
     72 C           7.7331  -12.6218    0.0000 C.3     1  UNL1        0.1152
     73 C           6.8671  -11.1218    0.0000 C.3     1  UNL1        0.1144
     74 C           6.8671  -12.1218    0.0000 C.3     1  UNL1        0.1120
     75 C          11.3608    1.6365    0.0000 C.3     1  UNL1        0.1884
     76 C          10.5006    2.1465    0.0000 C.3     1  UNL1        0.1345
     77 C           6.0010  -10.6218    0.0000 C.3     1  UNL1        0.0796
     78 C          10.5122    3.1464    0.0000 C.3     1  UNL1        0.1205
     79 C          12.2441    3.1264    0.0000 C.3     1  UNL1        0.0873
     80 C          11.3839    3.6364    0.0000 C.3     1  UNL1        0.1098
     81 C          13.1159    3.6163    0.0000 C.3     1  UNL1       -0.0361
     82 C           5.1350   -9.1218    0.0000 C.3     1  UNL1        0.1880
     83 C           9.6636    4.6563    0.0000 C.3     1  UNL1        0.1880
     84 C           4.2690   -9.6218    0.0000 C.3     1  UNL1        0.1341
     85 C           8.8034    5.1663    0.0000 C.3     1  UNL1        0.1341
     86 C           3.4030   -9.1218    0.0000 C.3     1  UNL1        0.1141
     87 C           4.2690   -7.6218    0.0000 C.3     1  UNL1        0.1130
     88 C           3.4030   -8.1218    0.0000 C.3     1  UNL1        0.1119
     89 C           8.8150    6.1662    0.0000 C.3     1  UNL1        0.1141
     90 C          10.5469    6.1462    0.0000 C.3     1  UNL1        0.0796
     91 C           9.6867    6.6562    0.0000 C.3     1  UNL1        0.1134
     92 C           4.2690   -6.6218    0.0000 C.3     1  UNL1        0.0730
     93 C          10.5700    8.1461    0.0000 C.3     1  UNL1        0.1884
     94 C          11.4302    7.6361    0.0000 C.3     1  UNL1        0.1341
     95 C          12.3019    8.1260    0.0000 C.3     1  UNL1        0.1144
     96 C          11.4533    9.6360    0.0000 C.3     1  UNL1        0.1134
     97 C          12.3135    9.1260    0.0000 C.3     1  UNL1        0.1184
     98 C          11.4649   10.6359    0.0000 C.3     1  UNL1        0.0730
     99 C          13.1968   10.6159    0.0000 C.3     1  UNL1        0.1880
    100 C          14.0686   11.1058    0.0000 C.3     1  UNL1        0.1341
    101 C          14.0801   12.1057    0.0000 C.3     1  UNL1        0.1137
    102 C          13.2199   12.6157    0.0000 C.3     1  UNL1        0.1069
    103 C          12.3482   12.1258    0.0000 C.3     1  UNL1        0.0792
    104 H          11.9832   -5.1459    0.0000 H       1  UNL1        0.0315
    105 H           9.6363   -3.5556    0.0000 H       1  UNL1        0.0312
    106 H           8.8539   -5.4329    0.0000 H       1  UNL1        0.0271
    107 H           9.2556   -6.1226    0.0000 H       1  UNL1        0.0271
    108 H           9.2556   -3.9136    0.0000 H       1  UNL1        0.0268
    109 H           8.8539   -4.6034    0.0000 H       1  UNL1        0.0268
    110 H          11.9644   -8.1676    0.0000 H       1  UNL1        0.0357
    111 H          12.7125   -6.1785    0.0000 H       1  UNL1        0.0310
    112 H          12.3193   -5.4852    0.0000 H       1  UNL1        0.0310
    113 H          12.4161   -4.5932    0.0000 H       1  UNL1        0.0271
    114 H          12.8338   -3.9129    0.0000 H       1  UNL1        0.0271
    115 H           9.2492   -6.9657    0.0000 H       1  UNL1        0.0274
    116 H           8.8368   -7.6492    0.0000 H       1  UNL1        0.0274
    117 H           9.2817   -5.6074    0.0000 H       1  UNL1        0.0235
    118 H           8.7733   -6.3217    0.0000 H       1  UNL1        0.0235
    119 H           9.4876   -6.8302    0.0000 H       1  UNL1        0.0235
    120 H          11.8556   -2.0605    0.0000 H       1  UNL1        0.0602
    121 H           8.8240   -8.4786    0.0000 H       1  UNL1        0.0276
    122 H           9.2151   -9.1745    0.0000 H       1  UNL1        0.0276
    123 H          11.8047   -5.5635    0.0000 H       1  UNL1        0.0235
    124 H          12.6550   -5.3497    0.0000 H       1  UNL1        0.0235
    125 H          12.4412   -4.4993    0.0000 H       1  UNL1        0.0235
    126 H          12.6296   -7.3802    0.0000 H       1  UNL1        0.0572
    127 H          12.8540   -3.0404    0.0000 H       1  UNL1        0.0290
    128 H          12.4682   -2.3415    0.0000 H       1  UNL1        0.0290
    129 H           9.4920   -6.2618    0.0000 H       1  UNL1        0.0238
    130 H           8.7699   -6.7592    0.0000 H       1  UNL1        0.0238
    131 H           9.2673   -7.4813    0.0000 H       1  UNL1        0.0238
    132 H          12.7928   -9.2304    0.0000 H       1  UNL1        0.0276
    133 H          12.3857   -8.5437    0.0000 H       1  UNL1        0.0276
    134 H           9.7053  -10.0912    0.0000 H       1  UNL1        0.0276
    135 H          10.0964  -10.7871    0.0000 H       1  UNL1        0.0276
    136 H           9.3732   -2.2746    0.0000 H       1  UNL1        0.0236
    137 H           8.7508   -2.8922    0.0000 H       1  UNL1        0.0236
    138 H           9.3684   -3.5146    0.0000 H       1  UNL1        0.0236
    139 H          10.4122   -1.7226    0.0000 H       1  UNL1        0.0236
    140 H           9.5662   -1.4924    0.0000 H       1  UNL1        0.0236
    141 H           9.3360   -2.3385    0.0000 H       1  UNL1        0.0236
    142 H          10.8489  -11.2293    0.0000 H       1  UNL1        0.0271
    143 H          11.6472  -11.2324    0.0000 H       1  UNL1        0.0271
    144 H          12.1571  -11.3901    0.0000 H       1  UNL1        0.0235
    145 H          13.0049  -11.6138    0.0000 H       1  UNL1        0.0235
    146 H          13.2286  -10.7660    0.0000 H       1  UNL1        0.0235
    147 H          13.1919  -10.8301    0.0000 H       1  UNL1        0.0235
    148 H          13.8095  -10.2077    0.0000 H       1  UNL1        0.0235
    149 H          13.1871   -9.5901    0.0000 H       1  UNL1        0.0235
    150 H          12.1907   -1.4933    0.0000 H       1  UNL1        0.0937
    151 H          12.2166    0.7465    0.0000 H       1  UNL1        0.0675
    152 H           8.5991  -10.5018    0.0000 H       1  UNL1        0.1085
    153 H          13.6217    0.9203    0.0000 H       1  UNL1        0.0648
    154 H          14.1351   -1.4784    0.0000 H       1  UNL1        0.0587
    155 H          14.5416   -0.7928    0.0000 H       1  UNL1        0.0587
    156 H          14.4747   -0.2096    0.0000 H       1  UNL1        0.0643
    157 H           8.5991  -12.7418    0.0000 H       1  UNL1        0.0683
    158 H           7.1962  -12.9318    0.0000 H       1  UNL1        0.0648
    159 H           6.8671  -10.5018    0.0000 H       1  UNL1        0.0647
    160 H           6.3301  -11.8118    0.0000 H       1  UNL1        0.0647
    161 H          10.8203    1.3327    0.0000 H       1  UNL1        0.0938
    162 H          13.6332    1.9202    0.0000 H       1  UNL1        0.2100
    163 H          15.3464    0.2803    0.0000 H       1  UNL1        0.2100
    164 H          10.0021  -12.3118    0.0000 H       1  UNL1        0.2102
    165 H           9.9673    2.4627    0.0000 H       1  UNL1        0.0671
    166 H           5.3905  -10.5142    0.0000 H       1  UNL1        0.0587
    167 H           5.7890  -11.2045    0.0000 H       1  UNL1        0.0587
    168 H           7.1962  -13.9318    0.0000 H       1  UNL1        0.2100
    169 H          10.5194    3.7664    0.0000 H       1  UNL1        0.0651
    170 H           5.4641  -12.3118    0.0000 H       1  UNL1        0.2100
    171 H          12.7774    2.8102    0.0000 H       1  UNL1        0.0621
    172 H          11.9244    3.9401    0.0000 H       1  UNL1        0.0646
    173 H           9.0956    1.9727    0.0000 H       1  UNL1        0.2101
    174 H          13.4196    3.0758    0.0000 H       1  UNL1        0.0255
    175 H          13.6564    3.9201    0.0000 H       1  UNL1        0.0255
    176 H          12.8121    4.1568    0.0000 H       1  UNL1        0.0255
    177 H           5.1350   -9.7418    0.0000 H       1  UNL1        0.0937
    178 H          11.9360    4.9401    0.0000 H       1  UNL1        0.2100
    179 H           9.1231    4.3526    0.0000 H       1  UNL1        0.0937
    180 H           3.7320   -9.9319    0.0000 H       1  UNL1        0.0671
    181 H           8.2701    5.4825    0.0000 H       1  UNL1        0.0671
    182 H           2.8660   -8.8118    0.0000 H       1  UNL1        0.0648
    183 H           4.8059   -7.3118    0.0000 H       1  UNL1        0.0647
    184 H           3.4030   -7.5018    0.0000 H       1  UNL1        0.0647
    185 H           8.8221    6.7862    0.0000 H       1  UNL1        0.0648
    186 H           3.7320  -10.9318    0.0000 H       1  UNL1        0.2101
    187 H          11.1562    6.0315    0.0000 H       1  UNL1        0.0587
    188 H          10.7657    6.7263    0.0000 H       1  UNL1        0.0587
    189 H          10.2272    6.9600    0.0000 H       1  UNL1        0.0647
    190 H           4.8796   -6.7295    0.0000 H       1  UNL1        0.0584
    191 H           4.4810   -6.0392    0.0000 H       1  UNL1        0.0584
    192 H           7.3983    4.9925    0.0000 H       1  UNL1        0.2101
    193 H           2.0000   -9.3118    0.0000 H       1  UNL1        0.2100
    194 H           2.0000   -7.9318    0.0000 H       1  UNL1        0.2100
    195 H           7.9619    7.2962    0.0000 H       1  UNL1        0.2100
    196 H           3.4030   -5.5018    0.0000 H       1  UNL1        0.2095
    197 H          10.5628    7.5261    0.0000 H       1  UNL1        0.0938
    198 H          11.9635    7.3199    0.0000 H       1  UNL1        0.0671
    199 H          12.8424    8.4298    0.0000 H       1  UNL1        0.0648
    200 H          10.9200    9.9521    0.0000 H       1  UNL1        0.0647
    201 H          12.3207    9.7459    0.0000 H       1  UNL1        0.0651
    202 H          11.9519    6.3200    0.0000 H       1  UNL1        0.2101
    203 H          12.0742   10.5212    0.0000 H       1  UNL1        0.0584
    204 H          11.6837   11.2160    0.0000 H       1  UNL1        0.0584
    205 H          13.7026    7.9198    0.0000 H       1  UNL1        0.2100
    206 H          13.7301   10.2997    0.0000 H       1  UNL1        0.0937
    207 H          10.6119   11.7658    0.0000 H       1  UNL1        0.2095
    208 H          14.6091   11.4096    0.0000 H       1  UNL1        0.0671
    209 H          14.0873   12.7257    0.0000 H       1  UNL1        0.0647
    210 H          12.6866   12.9319    0.0000 H       1  UNL1        0.0643
    211 H          12.1429   12.7108    0.0000 H       1  UNL1        0.0587
    212 H          11.7364   12.0252    0.0000 H       1  UNL1        0.0587
    213 H          15.4692   10.8996    0.0000 H       1  UNL1        0.2101
    214 H          14.9591   13.2157    0.0000 H       1  UNL1        0.2100
    215 H          12.6982   13.9318    0.0000 H       1  UNL1        0.2100
@<TRIPOS>BOND
     1    50     1    1
     2    65     1    1
     3     2    62    1
     4    67     2    1
     5     3    62    2
     6     4    65    1
     7     4    69    1
     8    66     5    1
     9    75     5    1
    10     6    67    1
    11     6    73    1
    12    68     7    1
    13     7   162    1
    14    70     8    1
    15     8   163    1
    16    71     9    1
    17     9   164    1
    18    72    10    1
    19    10   168    1
    20    11    75    1
    21    11    79    1
    22    74    12    1
    23    12   170    1
    24    13    77    1
    25    82    13    1
    26    76    14    1
    27    14   173    1
    28    78    15    1
    29    83    15    1
    30    80    16    1
    31    16   178    1
    32    17    82    1
    33    17    87    1
    34    18    83    1
    35    18    90    1
    36    84    19    1
    37    19   186    1
    38    85    20    1
    39    20   192    1
    40    86    21    1
    41    21   193    1
    42    88    22    1
    43    22   194    1
    44    89    23    1
    45    23   195    1
    46    91    24    1
    47    93    24    1
    48    25    92    1
    49    25   196    1
    50    26    93    1
    51    26    96    1
    52    94    27    1
    53    27   202    1
    54    95    28    1
    55    28   205    1
    56    97    29    1
    57    99    29    1
    58    30    98    1
    59    30   207    1
    60    31    99    1
    61    31   103    1
    62   100    32    1
    63    32   213    1
    64   101    33    1
    65    33   214    1
    66   102    34    1
    67    34   215    1
    68    35    36    1
    69    35    38    1
    70    35    40    1
    71    35    49    1
    72    36    37    1
    73    36    45    1
    74    36   104    1
    75    37    39    1
    76    37    46    1
    77    37    52    1
    78    38    43    1
    79    38    47    1
    80    38    55    1
    81    39    41    1
    82    39    42    1
    83    39   105    1
    84    40    42    1
    85    40   106    1
    86    40   107    1
    87    41    50    1
    88    41    59    1
    89    41    60    1
    90    42   108    1
    91    42   109    1
    92    43    44    1
    93    43    53    2
    94    44    48    1
    95    44    56    1
    96    44   110    1
    97    45    53    1
    98    45   111    1
    99    45   112    1
   100    46    54    1
   101    46   113    1
   102    46   114    1
   103    47    51    1
   104    47   115    1
   105    47   116    1
   106    48    51    1
   107    48    57    1
   108    48    62    1
   109    49   117    1
   110    49   118    1
   111    49   119    1
   112    50    54    1
   113    50   120    1
   114    51   121    1
   115    51   122    1
   116    52   123    1
   117    52   124    1
   118    52   125    1
   119    53   126    1
   120    54   127    1
   121    54   128    1
   122    55   129    1
   123    55   130    1
   124    55   131    1
   125    56    58    1
   126    56   132    1
   127    56   133    1
   128    57    61    1
   129    57   134    1
   130    57   135    1
   131    58    61    1
   132    58    63    1
   133    58    64    1
   134    59   139    1
   135    59   140    1
   136    59   141    1
   137    60   136    1
   138    60   137    1
   139    60   138    1
   140    61   142    1
   141    61   143    1
   142    63   147    1
   143    63   148    1
   144    63   149    1
   145    64   144    1
   146    64   145    1
   147    64   146    1
   148    65    66    1
   149    65   150    1
   150    66    68    1
   151    66   151    1
   152    67    71    1
   153    67   152    1
   154    68    70    1
   155    68   153    1
   156    69    70    1
   157    69   154    1
   158    69   155    1
   159    70   156    1
   160    71    72    1
   161    71   157    1
   162    72    74    1
   163    72   158    1
   164    73    74    1
   165    73    77    1
   166    73   159    1
   167    74   160    1
   168    75    76    1
   169    75   161    1
   170    76    78    1
   171    76   165    1
   172    77   166    1
   173    77   167    1
   174    78    80    1
   175    78   169    1
   176    79    80    1
   177    79    81    1
   178    79   171    1
   179    80   172    1
   180    81   174    1
   181    81   175    1
   182    81   176    1
   183    82    84    1
   184    82   177    1
   185    83    85    1
   186    83   179    1
   187    84    86    1
   188    84   180    1
   189    85    89    1
   190    85   181    1
   191    86    88    1
   192    86   182    1
   193    87    88    1
   194    87    92    1
   195    87   183    1
   196    88   184    1
   197    89    91    1
   198    89   185    1
   199    90    91    1
   200    90   187    1
   201    90   188    1
   202    91   189    1
   203    92   190    1
   204    92   191    1
   205    93    94    1
   206    93   197    1
   207    94    95    1
   208    94   198    1
   209    95    97    1
   210    95   199    1
   211    96    97    1
   212    96    98    1
   213    96   200    1
   214    97   201    1
   215    98   203    1
   216    98   204    1
   217    99   100    1
   218    99   206    1
   219   100   101    1
   220   100   208    1
   221   101   102    1
   222   101   209    1
   223   102   103    1
   224   102   210    1
   225   103   211    1
   226   103   212    1
