@<TRIPOS>MOLECULE
IMPHY001468
 56 57 0 0 0
SMALL
GASTEIGER

@<TRIPOS>ATOM
      1 O           2.8660    1.5000    0.0000 O.3     1  UNL1       -0.5055
      2 O           6.4489    0.8264    0.0000 O.3     1  UNL1       -0.5063
      3 O           2.8660   -1.5000    0.0000 O.3     1  UNL1       -0.4770
      4 O           2.0000    0.0000    0.0000 O.2     1  UNL1       -0.2450
      5 C           5.4641    3.0000    0.0000 C.3     1  UNL1       -0.0096
      6 C           4.5981    2.5000    0.0000 C.3     1  UNL1        0.0159
      7 C           5.4641    4.0000    0.0000 C.3     1  UNL1       -0.0420
      8 C           4.5981    4.5000    0.0000 C.3     1  UNL1       -0.0314
      9 C           3.7320    3.0000    0.0000 C.2     1  UNL1       -0.0768
     10 C           4.5981    1.5000    0.0000 C.ar    1  UNL1        0.0435
     11 C           3.7320    4.0000    0.0000 C.2     1  UNL1       -0.0759
     12 C           6.4489    3.1736    0.0000 C.2     1  UNL1       -0.0757
     13 C           3.7320    1.0000    0.0000 C.ar    1  UNL1        0.1383
     14 C           5.4641    1.0000    0.0000 C.ar    1  UNL1        0.1244
     15 C           2.8660    4.5000    0.0000 C.3     1  UNL1       -0.0438
     16 C           4.5981   -0.5000    0.0000 C.ar    1  UNL1       -0.0264
     17 C           3.7320    0.0000    0.0000 C.ar    1  UNL1        0.1038
     18 C           6.7909    4.1133    0.0000 C.3     1  UNL1       -0.0437
     19 C           5.4641    0.0000    0.0000 C.ar    1  UNL1       -0.0157
     20 C           4.5981   -1.5000    0.0000 C.3     1  UNL1       -0.0267
     21 C           7.0917    2.4076    0.0000 C.2     1  UNL1       -0.0994
     22 C           5.4641   -2.0000    0.0000 C.3     1  UNL1       -0.0490
     23 C           5.4641   -3.0000    0.0000 C.3     1  UNL1       -0.0530
     24 C           2.8660   -0.5000    0.0000 C.2     1  UNL1        0.3406
     25 C           6.3301   -3.5000    0.0000 C.3     1  UNL1       -0.0559
     26 C           6.3301   -4.5000    0.0000 C.3     1  UNL1       -0.0653
     27 H           5.6762    2.4174    0.0000 H       1  UNL1        0.0354
     28 H           5.3342    2.0750    0.0000 H       1  UNL1        0.0399
     29 H           6.0747    3.8923    0.0000 H       1  UNL1        0.0274
     30 H           5.6762    4.5826    0.0000 H       1  UNL1        0.0274
     31 H           4.9966    4.9750    0.0000 H       1  UNL1        0.0310
     32 H           4.1996    4.9750    0.0000 H       1  UNL1        0.0310
     33 H           3.1951    2.6900    0.0000 H       1  UNL1        0.0578
     34 H           3.1760    5.0369    0.0000 H       1  UNL1        0.0274
     35 H           2.3291    4.8100    0.0000 H       1  UNL1        0.0274
     36 H           2.5560    3.9631    0.0000 H       1  UNL1        0.0274
     37 H           7.3735    3.9013    0.0000 H       1  UNL1        0.0274
     38 H           7.0030    4.6960    0.0000 H       1  UNL1        0.0274
     39 H           6.2083    4.3254    0.0000 H       1  UNL1        0.0274
     40 H           6.0010   -0.3100    0.0000 H       1  UNL1        0.0657
     41 H           3.9875   -1.3923    0.0000 H       1  UNL1        0.0313
     42 H           4.3860   -2.0826    0.0000 H       1  UNL1        0.0313
     43 H           6.8796    1.8250    0.0000 H       1  UNL1        0.0534
     44 H           7.7023    2.5153    0.0000 H       1  UNL1        0.0534
     45 H           6.0747   -2.1077    0.0000 H       1  UNL1        0.0268
     46 H           5.6762   -1.4174    0.0000 H       1  UNL1        0.0268
     47 H           4.8535   -2.8923    0.0000 H       1  UNL1        0.0265
     48 H           5.2520   -3.5826    0.0000 H       1  UNL1        0.0265
     49 H           2.3291    1.1900    0.0000 H       1  UNL1        0.2922
     50 H           6.6610    0.2437    0.0000 H       1  UNL1        0.2921
     51 H           6.9407   -3.6077    0.0000 H       1  UNL1        0.0263
     52 H           6.5422   -2.9174    0.0000 H       1  UNL1        0.0263
     53 H           5.7101   -4.5000    0.0000 H       1  UNL1        0.0230
     54 H           6.3301   -5.1200    0.0000 H       1  UNL1        0.0230
     55 H           6.9501   -4.5000    0.0000 H       1  UNL1        0.0230
     56 H           2.3291   -1.8100    0.0000 H       1  UNL1        0.2954
@<TRIPOS>BOND
     1     1    13    1
     2     1    49    1
     3     2    14    1
     4     2    50    1
     5     3    24    1
     6     3    56    1
     7     4    24    2
     8     5     6    1
     9     5     7    1
    10     5    12    1
    11     5    27    1
    12     6     9    1
    13     6    10    1
    14     6    28    1
    15     7     8    1
    16     7    29    1
    17     7    30    1
    18     8    11    1
    19     8    31    1
    20     8    32    1
    21     9    11    2
    22     9    33    1
    23    10    13   ar
    24    10    14   ar
    25    11    15    1
    26    12    18    1
    27    12    21    2
    28    13    17   ar
    29    14    19   ar
    30    15    34    1
    31    15    35    1
    32    15    36    1
    33    16    17   ar
    34    16    19   ar
    35    16    20    1
    36    17    24    1
    37    18    37    1
    38    18    38    1
    39    18    39    1
    40    19    40    1
    41    20    22    1
    42    20    41    1
    43    20    42    1
    44    21    43    1
    45    21    44    1
    46    22    23    1
    47    22    45    1
    48    22    46    1
    49    23    25    1
    50    23    47    1
    51    23    48    1
    52    25    26    1
    53    25    51    1
    54    25    52    1
    55    26    53    1
    56    26    54    1
    57    26    55    1
