@<TRIPOS>MOLECULE
IMPHY005791
 57 60 0 0 0
SMALL
GASTEIGER

@<TRIPOS>ATOM
      1 O           8.1223   -2.5159    0.0000 O.3     1  UNL1       -0.4608
      2 O           5.5103    1.0125    0.0000 O.3     1  UNL1       -0.3889
      3 O           7.2762    2.0503    0.0000 O.3     1  UNL1       -0.3769
      4 O           4.6497    0.5156    0.0000 O.2     1  UNL1       -0.2882
      5 O           9.8438   -2.5487    0.0000 O.2     1  UNL1       -0.2508
      6 O           2.8680   -0.4948    0.0000 O.2     1  UNL1       -0.4919
      7 C           7.2641   -1.0190    0.0000 C.3     1  UNL1        0.0148
      8 C           6.3981   -0.5190    0.0000 C.3     1  UNL1        0.0093
      9 C           5.5320   -1.0190    0.0000 C.3     1  UNL1        0.0429
     10 C           8.1741   -0.5121    0.0000 C.3     1  UNL1       -0.0168
     11 C           7.2641   -2.0190    0.0000 C.3     1  UNL1        0.1093
     12 C           5.5320   -2.0190    0.0000 C.3     1  UNL1       -0.0212
     13 C           6.3820    0.5225    0.0000 C.3     1  UNL1        0.0859
     14 C           8.1821    0.5295    0.0000 C.3     1  UNL1       -0.0112
     15 C           6.3981   -2.5190    0.0000 C.3     1  UNL1       -0.0111
     16 C           7.2800    1.0503    0.0000 C.3     1  UNL1        0.0873
     17 C           7.2641   -0.0190    0.0000 C.3     1  UNL1       -0.0555
     18 C           9.0134   -1.0404    0.0000 C.3     1  UNL1        0.0487
     19 C           5.5320   -0.0190    0.0000 C.3     1  UNL1       -0.0518
     20 C           4.6381   -2.5536    0.0000 C.3     1  UNL1       -0.0271
     21 C           4.6381   -0.4843    0.0000 C.2     1  UNL1        0.2034
     22 C           9.0501    1.0261    0.0000 C.3     1  UNL1       -0.0597
     23 C           8.9878   -2.0317    0.0000 C.2     1  UNL1        0.3076
     24 C           3.7320   -0.9981    0.0000 C.2     1  UNL1        0.1590
     25 C           3.7320   -2.0398    0.0000 C.2     1  UNL1       -0.0385
     26 C           8.1403    2.5536    0.0000 C.3     1  UNL1        0.0369
     27 C           2.0000   -0.9915    0.0000 C.3     1  UNL1        0.0789
     28 H           5.6587   -0.0997    0.0000 H       1  UNL1        0.0343
     29 H           8.9198   -0.1041    0.0000 H       1  UNL1        0.0316
     30 H           7.2636   -2.8690    0.0000 H       1  UNL1        0.0739
     31 H           5.5386   -2.8689    0.0000 H       1  UNL1        0.0314
     32 H           5.8493    0.2053    0.0000 H       1  UNL1        0.0622
     33 H           8.7173    0.2164    0.0000 H       1  UNL1        0.0327
     34 H           5.9995   -2.9939    0.0000 H       1  UNL1        0.0304
     35 H           6.7966   -2.9939    0.0000 H       1  UNL1        0.0304
     36 H           6.7413    1.3572    0.0000 H       1  UNL1        0.0624
     37 H           7.8841   -0.0190    0.0000 H       1  UNL1        0.0236
     38 H           7.2641    0.6010    0.0000 H       1  UNL1        0.0236
     39 H           6.6441   -0.0190    0.0000 H       1  UNL1        0.0236
     40 H           9.6205   -1.1662    0.0000 H       1  UNL1        0.0380
     41 H           9.2452   -0.4653    0.0000 H       1  UNL1        0.0380
     42 H           6.1520   -0.0190    0.0000 H       1  UNL1        0.0239
     43 H           5.5320    0.6010    0.0000 H       1  UNL1        0.0239
     44 H           4.9120   -0.0190    0.0000 H       1  UNL1        0.0239
     45 H           4.2445   -3.0326    0.0000 H       1  UNL1        0.0312
     46 H           5.0427   -3.0234    0.0000 H       1  UNL1        0.0312
     47 H           9.3580    0.4880    0.0000 H       1  UNL1        0.0233
     48 H           9.5882    1.3341    0.0000 H       1  UNL1        0.0233
     49 H           8.7422    1.5643    0.0000 H       1  UNL1        0.0233
     50 H           5.5031    1.6324    0.0000 H       1  UNL1        0.2099
     51 H           3.1963   -2.3519    0.0000 H       1  UNL1        0.0609
     52 H           8.4523    2.0179    0.0000 H       1  UNL1        0.0524
     53 H           8.6760    2.8657    0.0000 H       1  UNL1        0.0524
     54 H           7.8282    3.0894    0.0000 H       1  UNL1        0.0524
     55 H           1.6921   -0.4533    0.0000 H       1  UNL1        0.0660
     56 H           1.4619   -1.2994    0.0000 H       1  UNL1        0.0660
     57 H           2.3079   -1.5296    0.0000 H       1  UNL1        0.0660
@<TRIPOS>BOND
     1     1    11    1
     2     1    23    1
     3    13     2    1
     4     2    50    1
     5    16     3    1
     6     3    26    1
     7     4    21    2
     8     5    23    2
     9     6    24    1
    10     6    27    1
    11     7     8    1
    12     7    10    1
    13     7    11    1
    14     7    17    1
    15     8     9    1
    16     8    13    1
    17     8    28    1
    18     9    12    1
    19     9    19    1
    20     9    21    1
    21    10    14    1
    22    10    18    1
    23    10    29    1
    24    11    15    1
    25    11    30    1
    26    12    15    1
    27    12    20    1
    28    12    31    1
    29    13    16    1
    30    13    32    1
    31    14    16    1
    32    14    22    1
    33    14    33    1
    34    15    34    1
    35    15    35    1
    36    16    36    1
    37    17    37    1
    38    17    38    1
    39    17    39    1
    40    18    23    1
    41    18    40    1
    42    18    41    1
    43    19    42    1
    44    19    43    1
    45    19    44    1
    46    20    25    1
    47    20    45    1
    48    20    46    1
    49    21    24    1
    50    22    47    1
    51    22    48    1
    52    22    49    1
    53    24    25    2
    54    25    51    1
    55    26    52    1
    56    26    53    1
    57    26    54    1
    58    27    55    1
    59    27    56    1
    60    27    57    1
