@<TRIPOS>MOLECULE
IMPHY002620
 71 75 0 0 0
SMALL
GASTEIGER

@<TRIPOS>ATOM
      1 O           3.8611    0.0027    0.0000 O.3     1  UNL1       -0.3645
      2 O           3.7320    2.1697    0.0000 O.3     1  UNL1       -0.4585
      3 O           8.1003    1.6666    0.0000 O.2     1  UNL1       -0.2921
      4 O           8.0622   -1.3303    0.0000 O.3     1  UNL1       -0.4679
      5 O           5.4280    4.9432    0.0000 O.2     1  UNL1       -0.3001
      6 O           6.3301   -1.3303    0.0000 O.2     1  UNL1       -0.2509
      7 O           5.6787   -4.8395    0.0000 O.2     1  UNL1       -0.4707
      8 O           2.8660    0.6697    0.0000 O.2     1  UNL1       -0.2512
      9 C           5.4641    0.1697    0.0000 C.3     1  UNL1        0.0255
     10 C           6.3301    0.6697    0.0000 C.3     1  UNL1       -0.0065
     11 C           6.3301    1.6697    0.0000 C.3     1  UNL1        0.0418
     12 C           4.5981    0.6697    0.0000 C.3     1  UNL1        0.1059
     13 C           5.4641    2.1697    0.0000 C.3     1  UNL1        0.0266
     14 C           4.5981    1.6697    0.0000 C.3     1  UNL1        0.1347
     15 C           5.2549   -0.8021    0.0000 C.2     1  UNL1       -0.0328
     16 C           4.2662   -0.9051    0.0000 C.3     1  UNL1        0.0819
     17 C           5.4480    3.2112    0.0000 C.3     1  UNL1        0.0487
     18 C           6.3301   -0.3303    0.0000 C.3     1  UNL1       -0.0530
     19 C           7.1962    0.1697    0.0000 C.3     1  UNL1        0.0495
     20 C           4.0624   -1.8721    0.0000 C.3     1  UNL1       -0.0121
     21 C           5.6537   -1.7062    0.0000 C.2     1  UNL1       -0.0628
     22 C           7.1962    1.1697    0.0000 C.3     1  UNL1       -0.0518
     23 C           7.2401    2.1766    0.0000 C.2     1  UNL1        0.1624
     24 C           4.9182   -2.3662    0.0000 C.3     1  UNL1        0.0109
     25 C           6.3461    3.7390    0.0000 C.2     1  UNL1       -0.0676
     26 C           7.2482    3.2182    0.0000 C.2     1  UNL1       -0.0217
     27 C           4.4481    3.1997    0.0000 C.3     1  UNL1       -0.0492
     28 C           4.9381    4.0714    0.0000 C.2     1  UNL1        0.1303
     29 C           6.6313   -1.9167    0.0000 C.3     1  UNL1       -0.0429
     30 C           7.1962   -0.8303    0.0000 C.2     1  UNL1        0.3071
     31 C           5.0219   -3.3608    0.0000 C.ar    1  UNL1       -0.0025
     32 C           2.8660    1.6697    0.0000 C.2     1  UNL1        0.3043
     33 C           4.2781   -4.0293    0.0000 C.ar    1  UNL1       -0.0202
     34 C           5.8874   -3.8615    0.0000 C.ar    1  UNL1        0.0954
     35 C           2.0000    2.1697    0.0000 C.3     1  UNL1        0.0332
     36 C           4.6841   -4.9432    0.0000 C.ar    1  UNL1        0.0920
     37 C           8.0622   -2.3303    0.0000 C.3     1  UNL1        0.0817
     38 H           6.3301    0.0497    0.0000 H       1  UNL1        0.0325
     39 H           3.8211    1.0145    0.0000 H       1  UNL1        0.0642
     40 H           4.7247    2.5890    0.0000 H       1  UNL1        0.0359
     41 H           4.5981    2.2897    0.0000 H       1  UNL1        0.0764
     42 H           3.4210   -0.9951    0.0000 H       1  UNL1        0.0644
     43 H           6.0201   -0.8672    0.0000 H       1  UNL1        0.0239
     44 H           6.8671   -0.6403    0.0000 H       1  UNL1        0.0239
     45 H           6.6401    0.2067    0.0000 H       1  UNL1        0.0239
     46 H           7.8067    0.0621    0.0000 H       1  UNL1        0.0381
     47 H           7.4082    0.7523    0.0000 H       1  UNL1        0.0381
     48 H           3.4725   -1.6812    0.0000 H       1  UNL1        0.0302
     49 H           3.8105   -2.4386    0.0000 H       1  UNL1        0.0302
     50 H           6.8862    0.6328    0.0000 H       1  UNL1        0.0239
     51 H           7.7331    0.8597    0.0000 H       1  UNL1        0.0239
     52 H           7.5062    1.7067    0.0000 H       1  UNL1        0.0239
     53 H           5.4967   -2.5891    0.0000 H       1  UNL1        0.0396
     54 H           6.3437    4.3590    0.0000 H       1  UNL1        0.0583
     55 H           7.7863    3.5261    0.0000 H       1  UNL1        0.0650
     56 H           4.4409    3.8196    0.0000 H       1  UNL1        0.0242
     57 H           3.8282    3.1925    0.0000 H       1  UNL1        0.0242
     58 H           4.4553    2.5797    0.0000 H       1  UNL1        0.0242
     59 H           4.3181    4.0643    0.0000 H       1  UNL1        0.1035
     60 H           6.5008   -2.5228    0.0000 H       1  UNL1        0.0275
     61 H           7.2374   -2.0471    0.0000 H       1  UNL1        0.0275
     62 H           6.7618   -1.3106    0.0000 H       1  UNL1        0.0275
     63 H           3.6718   -3.8998    0.0000 H       1  UNL1        0.0652
     64 H           6.4541   -3.6099    0.0000 H       1  UNL1        0.1032
     65 H           2.3100    2.7067    0.0000 H       1  UNL1        0.0342
     66 H           1.4631    2.4797    0.0000 H       1  UNL1        0.0342
     67 H           1.6900    1.6328    0.0000 H       1  UNL1        0.0342
     68 H           4.3736   -5.4798    0.0000 H       1  UNL1        0.1029
     69 H           7.4422   -2.3303    0.0000 H       1  UNL1        0.0661
     70 H           8.0622   -2.9503    0.0000 H       1  UNL1        0.0661
     71 H           8.6822   -2.3303    0.0000 H       1  UNL1        0.0661
@<TRIPOS>BOND
     1     1    12    1
     2     1    16    1
     3    14     2    1
     4     2    32    1
     5     3    23    2
     6     4    30    1
     7     4    37    1
     8     5    28    2
     9     6    30    2
    10     7    34   ar
    11     7    36   ar
    12     8    32    2
    13     9    10    1
    14     9    12    1
    15     9    15    1
    16     9    18    1
    17    10    11    1
    18    10    19    1
    19    10    38    1
    20    11    13    1
    21    11    22    1
    22    11    23    1
    23    12    14    1
    24    12    39    1
    25    13    14    1
    26    13    17    1
    27    13    40    1
    28    14    41    1
    29    15    16    1
    30    15    21    2
    31    16    20    1
    32    16    42    1
    33    17    25    1
    34    17    27    1
    35    17    28    1
    36    18    43    1
    37    18    44    1
    38    18    45    1
    39    19    30    1
    40    19    46    1
    41    19    47    1
    42    20    24    1
    43    20    48    1
    44    20    49    1
    45    21    24    1
    46    21    29    1
    47    22    50    1
    48    22    51    1
    49    22    52    1
    50    23    26    1
    51    24    31    1
    52    24    53    1
    53    25    26    2
    54    25    54    1
    55    26    55    1
    56    27    56    1
    57    27    57    1
    58    27    58    1
    59    28    59    1
    60    29    60    1
    61    29    61    1
    62    29    62    1
    63    31    33   ar
    64    31    34   ar
    65    32    35    1
    66    33    36   ar
    67    33    63    1
    68    34    64    1
    69    35    65    1
    70    35    66    1
    71    35    67    1
    72    36    68    1
    73    37    69    1
    74    37    70    1
    75    37    71    1
