@<TRIPOS>MOLECULE
IMPHY013975
 24 24 0 0 0
SMALL
GASTEIGER

@<TRIPOS>ATOM
      1 C           2.0000   -0.7500    0.0000 C.3     1  UNL1       -0.0242
      2 C           2.8660   -0.2500    0.0000 C.2     1  UNL1       -0.0471
      3 C           2.0000   -1.7500    0.0000 C.3     1  UNL1       -0.0305
      4 C           2.8660    0.7500    0.0000 C.2     1  UNL1       -0.0598
      5 C           3.7320   -0.7500    0.0000 C.2     1  UNL1       -0.0589
      6 C           2.8660   -2.2500    0.0000 C.2     1  UNL1       -0.0837
      7 C           3.7320   -1.7500    0.0000 C.2     1  UNL1       -0.0654
      8 C           3.7320    1.2500    0.0000 C.2     1  UNL1       -0.0754
      9 C           3.7320    2.2500    0.0000 C.3     1  UNL1       -0.0437
     10 C           4.5981    0.7500    0.0000 C.3     1  UNL1       -0.0437
     11 H           1.7880   -0.1674    0.0000 H       1  UNL1        0.0316
     12 H           1.3894   -0.8577    0.0000 H       1  UNL1        0.0316
     13 H           1.3894   -1.6423    0.0000 H       1  UNL1        0.0311
     14 H           1.7880   -2.3326    0.0000 H       1  UNL1        0.0311
     15 H           2.3291    1.0600    0.0000 H       1  UNL1        0.0620
     16 H           4.2690   -0.4400    0.0000 H       1  UNL1        0.0620
     17 H           2.8660   -2.8700    0.0000 H       1  UNL1        0.0572
     18 H           4.2690   -2.0600    0.0000 H       1  UNL1        0.0615
     19 H           4.3520    2.2500    0.0000 H       1  UNL1        0.0274
     20 H           3.7320    2.8700    0.0000 H       1  UNL1        0.0274
     21 H           3.1120    2.2500    0.0000 H       1  UNL1        0.0274
     22 H           4.2881    0.2131    0.0000 H       1  UNL1        0.0274
     23 H           5.1350    0.4400    0.0000 H       1  UNL1        0.0274
     24 H           4.9081    1.2869    0.0000 H       1  UNL1        0.0274
@<TRIPOS>BOND
     1     1     2    1
     2     1     3    1
     3     1    11    1
     4     1    12    1
     5     2     4    1
     6     2     5    2
     7     3     6    1
     8     3    13    1
     9     3    14    1
    10     4     8    2
    11     4    15    1
    12     5     7    1
    13     5    16    1
    14     6     7    2
    15     6    17    1
    16     7    18    1
    17     8     9    1
    18     8    10    1
    19     9    19    1
    20     9    20    1
    21     9    21    1
    22    10    22    1
    23    10    23    1
    24    10    24    1
