@<TRIPOS>MOLECULE
IMPHY016385
 27 26 0 0 0
SMALL
GASTEIGER

@<TRIPOS>ATOM
      1 O           5.4641    0.7500    0.0000 O.3     1  UNL1       -0.4643
      2 O           4.5981   -0.7500    0.0000 O.2     1  UNL1       -0.2509
      3 C           7.1962    0.7500    0.0000 C.3     1  UNL1        0.0022
      4 C           3.7320    0.7500    0.0000 C.3     1  UNL1        0.0447
      5 C           2.8660    0.2500    0.0000 C.3     1  UNL1       -0.0458
      6 C           6.3301    0.2500    0.0000 C.3     1  UNL1        0.0961
      7 C           8.0622    0.2500    0.0000 C.2     1  UNL1       -0.0765
      8 C           4.5981    0.2500    0.0000 C.2     1  UNL1        0.3071
      9 C           2.0000    0.7500    0.0000 C.3     1  UNL1       -0.0648
     10 C           8.9282    0.7500    0.0000 C.3     1  UNL1       -0.0439
     11 C           8.0622   -0.7500    0.0000 C.2     1  UNL1       -0.0996
     12 H           4.1306    1.2250    0.0000 H       1  UNL1        0.0377
     13 H           3.3335    1.2250    0.0000 H       1  UNL1        0.0377
     14 H           7.5947    1.2250    0.0000 H       1  UNL1        0.0343
     15 H           6.7976    1.2250    0.0000 H       1  UNL1        0.0343
     16 H           2.4675   -0.2249    0.0000 H       1  UNL1        0.0268
     17 H           3.2646   -0.2249    0.0000 H       1  UNL1        0.0268
     18 H           5.9316   -0.2249    0.0000 H       1  UNL1        0.0700
     19 H           6.7287   -0.2249    0.0000 H       1  UNL1        0.0700
     20 H           2.3100    1.2869    0.0000 H       1  UNL1        0.0230
     21 H           1.4631    1.0600    0.0000 H       1  UNL1        0.0230
     22 H           1.6900    0.2131    0.0000 H       1  UNL1        0.0230
     23 H           9.2382    0.2131    0.0000 H       1  UNL1        0.0274
     24 H           9.4651    1.0600    0.0000 H       1  UNL1        0.0274
     25 H           8.6182    1.2869    0.0000 H       1  UNL1        0.0274
     26 H           7.5252   -1.0600    0.0000 H       1  UNL1        0.0534
     27 H           8.5991   -1.0600    0.0000 H       1  UNL1        0.0534
@<TRIPOS>BOND
     1     1     6    1
     2     1     8    1
     3     2     8    2
     4     3     6    1
     5     3     7    1
     6     3    14    1
     7     3    15    1
     8     4     5    1
     9     4     8    1
    10     4    12    1
    11     4    13    1
    12     5     9    1
    13     5    16    1
    14     5    17    1
    15     6    18    1
    16     6    19    1
    17     7    10    1
    18     7    11    2
    19     9    20    1
    20     9    21    1
    21     9    22    1
    22    10    23    1
    23    10    24    1
    24    10    25    1
    25    11    26    1
    26    11    27    1
