@<TRIPOS>MOLECULE
IMPHY001150
 99 105 0 0 0
SMALL
GASTEIGER

@<TRIPOS>ATOM
      1 O           3.4090    0.7093    0.0000 O.3     1  UNL1       -0.3815
      2 O           2.9677    1.5474    0.0000 O.3     1  UNL1       -0.3851
      3 O           4.4853    0.3785    0.0000 O.3     1  UNL1       -0.3765
      4 O           6.3080    4.1404    0.0000 O.3     1  UNL1       -0.3791
      5 O           2.5911    3.7145    0.0000 O.3     1  UNL1       -0.3790
      6 O           2.1903    4.5983    0.0000 O.3     1  UNL1       -0.3793
      7 O           7.1740   -0.0948    0.0000 O.3     1  UNL1       -0.4605
      8 O           6.3080   -1.5948    0.0000 O.2     1  UNL1       -0.2449
      9 O           8.0400   -4.5948    0.0000 O.2     1  UNL1       -0.2752
     10 N           7.5033    2.3113    0.0000 N.3     1  UNL1       -0.2955
     11 N           7.1740   -3.0948    0.0000 N.am    1  UNL1       -0.2846
     12 C           5.5566    2.7066    0.0000 C.3     1  UNL1        0.0245
     13 C           5.5566    1.8390    0.0000 C.3     1  UNL1        0.0078
     14 C           6.5586    2.6005    0.0000 C.3     1  UNL1        0.0529
     15 C           4.8783    3.2475    0.0000 C.3     1  UNL1       -0.0228
     16 C           4.0325    1.4911    0.0000 C.3     1  UNL1        0.1371
     17 C           4.0325    3.0544    0.0000 C.3     1  UNL1        0.0209
     18 C           3.6561    2.2728    0.0000 C.3     1  UNL1        0.1063
     19 C           4.8783    1.2981    0.0000 C.3     1  UNL1        0.0953
     20 C           6.3080    1.4052    0.0000 C.3     1  UNL1        0.0236
     21 C           6.3080    3.1404    0.0000 C.3     1  UNL1        0.0661
     22 C           4.9561    4.1116    0.0000 C.3     1  UNL1       -0.0416
     23 C           4.1583    4.4526    0.0000 C.3     1  UNL1        0.0123
     24 C           3.5875    3.7992    0.0000 C.3     1  UNL1        0.0693
     25 C           3.0112    2.5427    0.0000 C.3     1  UNL1        0.0059
     26 C           7.5033    1.5594    0.0000 C.3     1  UNL1        0.0084
     27 C           7.0593    1.8390    0.0000 C.3     1  UNL1       -0.0404
     28 C           3.0112    4.0272    0.0000 C.3     1  UNL1        0.0662
     29 C           7.0593    2.7066    0.0000 C.3     1  UNL1       -0.0254
     30 C           6.3080    0.4052    0.0000 C.3     1  UNL1        0.0999
     31 C           8.3072    2.9060    0.0000 C.3     1  UNL1       -0.0035
     32 C           5.0851   -0.4216    0.0000 C.3     1  UNL1        0.0369
     33 C           9.2242    2.5071    0.0000 C.3     1  UNL1       -0.0523
     34 C           7.1740    4.6404    0.0000 C.3     1  UNL1        0.0368
     35 C           2.1662    2.8093    0.0000 C.3     1  UNL1        0.0368
     36 C           2.2745    5.5948    0.0000 C.3     1  UNL1        0.0368
     37 C           7.1740   -1.0948    0.0000 C.2     1  UNL1        0.3410
     38 C           8.0400   -1.5948    0.0000 C.ar    1  UNL1        0.0801
     39 C           8.0400   -2.5948    0.0000 C.ar    1  UNL1        0.0474
     40 C           8.9060   -1.0948    0.0000 C.ar    1  UNL1       -0.0460
     41 C           8.9060   -3.0948    0.0000 C.ar    1  UNL1       -0.0397
     42 C           9.7721   -1.5948    0.0000 C.ar    1  UNL1       -0.0609
     43 C           9.7720   -2.5948    0.0000 C.ar    1  UNL1       -0.0600
     44 C           7.1740   -4.0948    0.0000 C.2     1  UNL1        0.2198
     45 C           6.3080   -4.5948    0.0000 C.3     1  UNL1        0.0303
     46 C           6.3080   -5.5948    0.0000 C.3     1  UNL1       -0.0544
     47 C           5.4419   -4.0948    0.0000 C.3     1  UNL1       -0.0544
     48 H           5.6201    0.9914    0.0000 H       1  UNL1        0.0340
     49 H           6.8705    3.3912    0.0000 H       1  UNL1        0.0499
     50 H           5.6599    3.5816    0.0000 H       1  UNL1        0.0312
     51 H           3.1833    3.0163    0.0000 H       1  UNL1        0.0358
     52 H           5.0787    0.7114    0.0000 H       1  UNL1        0.0629
     53 H           5.7710    3.4504    0.0000 H       1  UNL1        0.0602
     54 H           5.1388    4.7040    0.0000 H       1  UNL1        0.0272
     55 H           5.5644    3.9918    0.0000 H       1  UNL1        0.0272
     56 H           4.1791    5.3023    0.0000 H       1  UNL1        0.0351
     57 H           3.3074    4.3523    0.0000 H       1  UNL1        0.0603
     58 H           2.8492    1.9442    0.0000 H       1  UNL1        0.0319
     59 H           2.3966    2.6244    0.0000 H       1  UNL1        0.0319
     60 H           8.1227    1.5860    0.0000 H       1  UNL1        0.0433
     61 H           7.5563    0.9417    0.0000 H       1  UNL1        0.0433
     62 H           7.6699    1.9466    0.0000 H       1  UNL1        0.0273
     63 H           7.2714    1.2564    0.0000 H       1  UNL1        0.0273
     64 H           3.0893    4.6423    0.0000 H       1  UNL1        0.0600
     65 H           7.2714    3.2892    0.0000 H       1  UNL1        0.0290
     66 H           7.6699    2.5989    0.0000 H       1  UNL1        0.0290
     67 H           6.0959   -0.1774    0.0000 H       1  UNL1        0.0704
     68 H           5.6974    0.5129    0.0000 H       1  UNL1        0.0704
     69 H           3.6355    0.1322    0.0000 H       1  UNL1        0.2105
     70 H           2.3649    1.6921    0.0000 H       1  UNL1        0.2103
     71 H           7.8576    3.3329    0.0000 H       1  UNL1        0.0424
     72 H           8.6496    3.4230    0.0000 H       1  UNL1        0.0424
     73 H           5.5812   -0.0497    0.0000 H       1  UNL1        0.0524
     74 H           5.4570   -0.9177    0.0000 H       1  UNL1        0.0524
     75 H           4.5890   -0.7935    0.0000 H       1  UNL1        0.0524
     76 H           9.4716    3.0756    0.0000 H       1  UNL1        0.0242
     77 H           9.7928    2.2598    0.0000 H       1  UNL1        0.0242
     78 H           8.9769    1.9386    0.0000 H       1  UNL1        0.0242
     79 H           6.8640    5.1773    0.0000 H       1  UNL1        0.0524
     80 H           7.7109    4.9504    0.0000 H       1  UNL1        0.0524
     81 H           7.4840    4.1034    0.0000 H       1  UNL1        0.0524
     82 H           2.7275    2.5459    0.0000 H       1  UNL1        0.0524
     83 H           1.9028    2.2480    0.0000 H       1  UNL1        0.0524
     84 H           1.6050    3.0727    0.0000 H       1  UNL1        0.0524
     85 H           1.6567    5.6470    0.0000 H       1  UNL1        0.0524
     86 H           2.3266    6.2126    0.0000 H       1  UNL1        0.0524
     87 H           2.8923    5.5426    0.0000 H       1  UNL1        0.0524
     88 H           8.9060   -0.4748    0.0000 H       1  UNL1        0.0626
     89 H           8.9060   -3.7148    0.0000 H       1  UNL1        0.0636
     90 H          10.3090   -1.2848    0.0000 H       1  UNL1        0.0618
     91 H           6.6370   -2.7848    0.0000 H       1  UNL1        0.1548
     92 H          10.3090   -2.9048    0.0000 H       1  UNL1        0.0618
     93 H           5.7710   -4.9048    0.0000 H       1  UNL1        0.0389
     94 H           6.9280   -5.5948    0.0000 H       1  UNL1        0.0237
     95 H           6.3080   -6.2148    0.0000 H       1  UNL1        0.0237
     96 H           5.6880   -5.5948    0.0000 H       1  UNL1        0.0237
     97 H           5.1319   -4.6317    0.0000 H       1  UNL1        0.0237
     98 H           4.9050   -3.7848    0.0000 H       1  UNL1        0.0237
     99 H           5.7519   -3.5578    0.0000 H       1  UNL1        0.0237
@<TRIPOS>BOND
     1    16     1    1
     2     1    69    1
     3    18     2    1
     4     2    70    1
     5    19     3    1
     6     3    32    1
     7    21     4    1
     8     4    34    1
     9    24     5    1
    10     5    35    1
    11    28     6    1
    12     6    36    1
    13     7    30    1
    14     7    37    1
    15     8    37    2
    16     9    44    2
    17    10    14    1
    18    10    26    1
    19    10    31    1
    20    11    39    1
    21    11    44   am
    22    11    91    1
    23    12    13    1
    24    12    14    1
    25    12    15    1
    26    12    21    1
    27    13    19    1
    28    13    20    1
    29    13    48    1
    30    14    16    1
    31    14    49    1
    32    15    17    1
    33    15    22    1
    34    15    50    1
    35    16    18    1
    36    16    19    1
    37    17    18    1
    38    17    24    1
    39    17    51    1
    40    18    25    1
    41    19    52    1
    42    20    26    1
    43    20    27    1
    44    20    30    1
    45    21    29    1
    46    21    53    1
    47    22    23    1
    48    22    54    1
    49    22    55    1
    50    23    24    1
    51    23    28    1
    52    23    56    1
    53    24    57    1
    54    25    28    1
    55    25    58    1
    56    25    59    1
    57    26    60    1
    58    26    61    1
    59    27    29    1
    60    27    62    1
    61    27    63    1
    62    28    64    1
    63    29    65    1
    64    29    66    1
    65    30    67    1
    66    30    68    1
    67    31    33    1
    68    31    71    1
    69    31    72    1
    70    32    73    1
    71    32    74    1
    72    32    75    1
    73    33    76    1
    74    33    77    1
    75    33    78    1
    76    34    79    1
    77    34    80    1
    78    34    81    1
    79    35    82    1
    80    35    83    1
    81    35    84    1
    82    36    85    1
    83    36    86    1
    84    36    87    1
    85    37    38    1
    86    38    39   ar
    87    38    40   ar
    88    39    41   ar
    89    40    42   ar
    90    40    88    1
    91    41    43   ar
    92    41    89    1
    93    42    43   ar
    94    42    90    1
    95    43    92    1
    96    44    45    1
    97    45    46    1
    98    45    47    1
    99    45    93    1
   100    46    94    1
   101    46    95    1
   102    46    96    1
   103    47    97    1
   104    47    98    1
   105    47    99    1
