@<TRIPOS>MOLECULE
IMPHY015544
 58 58 0 0 0
SMALL
GASTEIGER

@<TRIPOS>ATOM
      1 O           2.0000    1.1900    0.0000 O.3     1  UNL1       -0.3903
      2 O          14.9904   -0.3100    0.0000 O.3     1  UNL1       -0.3921
      3 N           3.7320   -0.8100    0.0000 N.3     1  UNL1       -0.3083
      4 C           4.5981   -0.3100    0.0000 C.3     1  UNL1        0.0080
      5 C           4.5981    0.6900    0.0000 C.3     1  UNL1       -0.0352
      6 C           2.8660   -0.3100    0.0000 C.3     1  UNL1        0.0310
      7 C           2.8660    0.6900    0.0000 C.3     1  UNL1        0.0703
      8 C           3.7320    1.1900    0.0000 C.3     1  UNL1       -0.0240
      9 C           5.4641   -0.8100    0.0000 C.3     1  UNL1       -0.0375
     10 C           6.3301   -0.3100    0.0000 C.3     1  UNL1       -0.0516
     11 C           7.1962   -0.8100    0.0000 C.3     1  UNL1       -0.0530
     12 C           2.0000   -0.8100    0.0000 C.3     1  UNL1       -0.0473
     13 C           8.0622   -0.3100    0.0000 C.3     1  UNL1       -0.0531
     14 C           8.9282   -0.8100    0.0000 C.3     1  UNL1       -0.0531
     15 C           9.7942   -0.3100    0.0000 C.3     1  UNL1       -0.0531
     16 C          10.6603   -0.8100    0.0000 C.3     1  UNL1       -0.0531
     17 C          11.5263   -0.3100    0.0000 C.3     1  UNL1       -0.0530
     18 C          12.3923   -0.8100    0.0000 C.3     1  UNL1       -0.0507
     19 C          13.2583   -0.3100    0.0000 C.3     1  UNL1       -0.0271
     20 C          14.1244   -0.8100    0.0000 C.3     1  UNL1        0.0524
     21 C          14.1244   -1.8100    0.0000 C.3     1  UNL1       -0.0389
     22 H           4.5981   -0.9300    0.0000 H       1  UNL1        0.0460
     23 H           5.2087    0.5823    0.0000 H       1  UNL1        0.0281
     24 H           4.8101    1.2726    0.0000 H       1  UNL1        0.0281
     25 H           2.8660   -0.9300    0.0000 H       1  UNL1        0.0483
     26 H           2.3291    0.3800    0.0000 H       1  UNL1        0.0609
     27 H           4.1306    1.6650    0.0000 H       1  UNL1        0.0291
     28 H           3.3335    1.6650    0.0000 H       1  UNL1        0.0291
     29 H           5.0656   -1.2850    0.0000 H       1  UNL1        0.0280
     30 H           5.8626   -1.2850    0.0000 H       1  UNL1        0.0280
     31 H           3.7320   -1.4300    0.0000 H       1  UNL1        0.1225
     32 H           6.7287    0.1649    0.0000 H       1  UNL1        0.0266
     33 H           5.9316    0.1649    0.0000 H       1  UNL1        0.0266
     34 H           6.7976   -1.2850    0.0000 H       1  UNL1        0.0265
     35 H           7.5947   -1.2850    0.0000 H       1  UNL1        0.0265
     36 H           1.6900   -0.2731    0.0000 H       1  UNL1        0.0245
     37 H           1.4631   -1.1200    0.0000 H       1  UNL1        0.0245
     38 H           2.3100   -1.3469    0.0000 H       1  UNL1        0.0245
     39 H           8.4607    0.1649    0.0000 H       1  UNL1        0.0265
     40 H           7.6636    0.1649    0.0000 H       1  UNL1        0.0265
     41 H           8.5297   -1.2850    0.0000 H       1  UNL1        0.0265
     42 H           9.3267   -1.2850    0.0000 H       1  UNL1        0.0265
     43 H           2.0000    1.8100    0.0000 H       1  UNL1        0.2098
     44 H          10.1928    0.1649    0.0000 H       1  UNL1        0.0265
     45 H           9.3957    0.1649    0.0000 H       1  UNL1        0.0265
     46 H          10.2617   -1.2850    0.0000 H       1  UNL1        0.0265
     47 H          11.0588   -1.2850    0.0000 H       1  UNL1        0.0265
     48 H          11.9248    0.1649    0.0000 H       1  UNL1        0.0265
     49 H          11.1278    0.1649    0.0000 H       1  UNL1        0.0265
     50 H          11.9938   -1.2850    0.0000 H       1  UNL1        0.0266
     51 H          12.7908   -1.2850    0.0000 H       1  UNL1        0.0266
     52 H          13.6569    0.1649    0.0000 H       1  UNL1        0.0290
     53 H          12.8598    0.1649    0.0000 H       1  UNL1        0.0290
     54 H          14.1244   -0.1900    0.0000 H       1  UNL1        0.0590
     55 H          13.5044   -1.8100    0.0000 H       1  UNL1        0.0254
     56 H          14.1244   -2.4300    0.0000 H       1  UNL1        0.0254
     57 H          14.7444   -1.8100    0.0000 H       1  UNL1        0.0254
     58 H          15.5273   -0.6200    0.0000 H       1  UNL1        0.2098
@<TRIPOS>BOND
     1     7     1    1
     2     1    43    1
     3     2    20    1
     4     2    58    1
     5     3     4    1
     6     3     6    1
     7     3    31    1
     8     4     5    1
     9     4     9    1
    10     4    22    1
    11     5     8    1
    12     5    23    1
    13     5    24    1
    14     6     7    1
    15     6    12    1
    16     6    25    1
    17     7     8    1
    18     7    26    1
    19     8    27    1
    20     8    28    1
    21     9    10    1
    22     9    29    1
    23     9    30    1
    24    10    11    1
    25    10    32    1
    26    10    33    1
    27    11    13    1
    28    11    34    1
    29    11    35    1
    30    12    36    1
    31    12    37    1
    32    12    38    1
    33    13    14    1
    34    13    39    1
    35    13    40    1
    36    14    15    1
    37    14    41    1
    38    14    42    1
    39    15    16    1
    40    15    44    1
    41    15    45    1
    42    16    17    1
    43    16    46    1
    44    16    47    1
    45    17    18    1
    46    17    48    1
    47    17    49    1
    48    18    19    1
    49    18    50    1
    50    18    51    1
    51    19    20    1
    52    19    52    1
    53    19    53    1
    54    20    21    1
    55    20    54    1
    56    21    55    1
    57    21    56    1
    58    21    57    1
