@<TRIPOS>MOLECULE
IMPHY005815
 44 46 0 0 0
SMALL
GASTEIGER

@<TRIPOS>ATOM
      1 O           4.5981    1.5000    0.0000 O.2     1  UNL1       -0.2756
      2 O          11.6065    0.3047    0.0000 O.3     1  UNL1       -0.4526
      3 O          11.6065   -1.3047    0.0000 O.3     1  UNL1       -0.4526
      4 N           3.7320    0.0000    0.0000 N.am    1  UNL1       -0.3015
      5 C           2.0000   -1.0000    0.0000 C.3     1  UNL1       -0.0502
      6 C           2.8660   -1.5000    0.0000 C.3     1  UNL1       -0.0371
      7 C           2.0000    0.0000    0.0000 C.3     1  UNL1       -0.0371
      8 C           2.8660    0.5000    0.0000 C.3     1  UNL1        0.0147
      9 C           3.7320   -1.0000    0.0000 C.3     1  UNL1        0.0147
     10 C           4.5981    0.5000    0.0000 C.2     1  UNL1        0.2156
     11 C           5.4641    0.0000    0.0000 C.3     1  UNL1        0.0242
     12 C           6.3301    0.5000    0.0000 C.3     1  UNL1       -0.0445
     13 C           7.1962    0.0000    0.0000 C.3     1  UNL1       -0.0486
     14 C           8.0622    0.5000    0.0000 C.3     1  UNL1       -0.0276
     15 C           8.9282    0.0000    0.0000 C.ar    1  UNL1       -0.0437
     16 C           9.7942    0.5000    0.0000 C.ar    1  UNL1       -0.0130
     17 C           8.9282   -1.0000    0.0000 C.ar    1  UNL1       -0.0549
     18 C          10.6603    0.0000    0.0000 C.ar    1  UNL1        0.1665
     19 C          10.6603   -1.0000    0.0000 C.ar    1  UNL1        0.1662
     20 C           9.7942   -1.5000    0.0000 C.ar    1  UNL1       -0.0159
     21 C          12.1901   -0.5000    0.0000 C.3     1  UNL1        0.2332
     22 H           1.3894   -0.8923    0.0000 H       1  UNL1        0.0266
     23 H           1.7880   -1.5826    0.0000 H       1  UNL1        0.0266
     24 H           1.7880    0.5826    0.0000 H       1  UNL1        0.0280
     25 H           1.3894   -0.1077    0.0000 H       1  UNL1        0.0280
     26 H           2.4675   -1.9750    0.0000 H       1  UNL1        0.0280
     27 H           3.2646   -1.9750    0.0000 H       1  UNL1        0.0280
     28 H           3.9441   -1.5826    0.0000 H       1  UNL1        0.0464
     29 H           4.3426   -0.8923    0.0000 H       1  UNL1        0.0464
     30 H           3.2646    0.9749    0.0000 H       1  UNL1        0.0464
     31 H           2.4675    0.9749    0.0000 H       1  UNL1        0.0464
     32 H           5.0656   -0.4749    0.0000 H       1  UNL1        0.0358
     33 H           5.8626   -0.4749    0.0000 H       1  UNL1        0.0358
     34 H           6.7287    0.9749    0.0000 H       1  UNL1        0.0270
     35 H           5.9316    0.9749    0.0000 H       1  UNL1        0.0270
     36 H           6.7976   -0.4749    0.0000 H       1  UNL1        0.0269
     37 H           7.5947   -0.4749    0.0000 H       1  UNL1        0.0269
     38 H           8.4607    0.9749    0.0000 H       1  UNL1        0.0313
     39 H           7.6636    0.9749    0.0000 H       1  UNL1        0.0313
     40 H           9.7942    1.1200    0.0000 H       1  UNL1        0.0658
     41 H           8.3913   -1.3100    0.0000 H       1  UNL1        0.0621
     42 H           9.7942   -2.1200    0.0000 H       1  UNL1        0.0655
     43 H          12.6510   -0.9147    0.0000 H       1  UNL1        0.1166
     44 H          12.6510   -0.0853    0.0000 H       1  UNL1        0.1166
@<TRIPOS>BOND
     1     1    10    2
     2     2    18    1
     3     2    21    1
     4     3    19    1
     5     3    21    1
     6     4     8    1
     7     4     9    1
     8     4    10   am
     9     5     6    1
    10     5     7    1
    11     5    22    1
    12     5    23    1
    13     6     9    1
    14     6    26    1
    15     6    27    1
    16     7     8    1
    17     7    24    1
    18     7    25    1
    19     8    30    1
    20     8    31    1
    21     9    28    1
    22     9    29    1
    23    10    11    1
    24    11    12    1
    25    11    32    1
    26    11    33    1
    27    12    13    1
    28    12    34    1
    29    12    35    1
    30    13    14    1
    31    13    36    1
    32    13    37    1
    33    14    15    1
    34    14    38    1
    35    14    39    1
    36    15    16   ar
    37    15    17   ar
    38    16    18   ar
    39    16    40    1
    40    17    20   ar
    41    17    41    1
    42    18    19   ar
    43    19    20   ar
    44    20    42    1
    45    21    43    1
    46    21    44    1
