@<TRIPOS>MOLECULE
IMPHY007536
 22 24 0 0 0
SMALL
GASTEIGER

@<TRIPOS>ATOM
      1 C           3.8000    0.0454    0.0000 C.ar    1  UNL1       -0.0115
      2 C           4.3009    1.4697    0.0000 C.3     1  UNL1       -0.0231
      3 C           3.3073    1.4893    0.0000 C.3     1  UNL1       -0.0231
      4 C           4.6660    0.5454    0.0000 C.ar    1  UNL1       -0.0391
      5 C           2.9061    0.5800    0.0000 C.ar    1  UNL1       -0.0391
      6 C           3.8000   -0.9546    0.0000 C.ar    1  UNL1       -0.0174
      7 C           5.5321    0.0454    0.0000 C.ar    1  UNL1       -0.0580
      8 C           2.0000    0.0662    0.0000 C.ar    1  UNL1       -0.0580
      9 C           4.6660   -1.4546    0.0000 C.ar    1  UNL1       -0.0540
     10 C           2.9061   -1.4893    0.0000 C.ar    1  UNL1       -0.0540
     11 C           2.0000   -0.9754    0.0000 C.ar    1  UNL1       -0.0609
     12 C           5.5321   -0.9546    0.0000 C.ar    1  UNL1       -0.0609
     13 H           4.9025    1.6196    0.0000 H       1  UNL1        0.0316
     14 H           4.2315    2.0858    0.0000 H       1  UNL1        0.0316
     15 H           3.4010    2.1022    0.0000 H       1  UNL1        0.0316
     16 H           2.7121    1.6628    0.0000 H       1  UNL1        0.0316
     17 H           6.0690    0.3554    0.0000 H       1  UNL1        0.0620
     18 H           1.4643    0.3783    0.0000 H       1  UNL1        0.0620
     19 H           2.9132   -2.1092    0.0000 H       1  UNL1        0.0624
     20 H           4.6660   -2.0746    0.0000 H       1  UNL1        0.0624
     21 H           6.0690   -1.2646    0.0000 H       1  UNL1        0.0618
     22 H           1.4643   -1.2875    0.0000 H       1  UNL1        0.0618
@<TRIPOS>BOND
     1     1     4   ar
     2     1     5   ar
     3     1     6   ar
     4     2     3    1
     5     2     4    1
     6     2    13    1
     7     2    14    1
     8     3     5    1
     9     3    15    1
    10     3    16    1
    11     4     7   ar
    12     5     8   ar
    13     6     9   ar
    14     6    10   ar
    15     7    12   ar
    16     7    17    1
    17     8    11   ar
    18     8    18    1
    19     9    12   ar
    20     9    20    1
    21    10    11   ar
    22    10    19    1
    23    11    22    1
    24    12    21    1
