@<TRIPOS>MOLECULE
IMPHY012376
 90 95 0 0 0
SMALL
GASTEIGER

@<TRIPOS>ATOM
      1 O          10.4858    2.1550    0.0000 O.3     1  UNL1       -0.3093
      2 O           9.6198    0.6550    0.0000 O.3     1  UNL1       -0.3404
      3 O           9.6198    3.6550    0.0000 O.2     1  UNL1       -0.4699
      4 O           8.7538   -1.8450    0.0000 O.3     1  UNL1       -0.3460
      5 O           7.0217   -1.8450    0.0000 O.3     1  UNL1       -0.3405
      6 O          12.2179    1.1550    0.0000 O.3     1  UNL1       -0.3841
      7 O          10.4858   -1.8450    0.0000 O.3     1  UNL1       -0.3865
      8 O          12.2179   -0.8450    0.0000 O.3     1  UNL1       -0.3864
      9 O           8.7538   -3.8450    0.0000 O.3     1  UNL1       -0.3841
     10 O           7.0217   -4.8450    0.0000 O.3     1  UNL1       -0.3864
     11 O           5.2897   -3.8450    0.0000 O.3     1  UNL1       -0.3865
     12 O           8.7538    5.1550    0.0000 O.3     1  UNL1       -0.4773
     13 O           7.0218    5.1550    0.0000 O.2     1  UNL1       -0.2454
     14 O           5.2897   -0.8450    0.0000 O.3     1  UNL1       -0.3924
     15 N           6.1517    3.6966    0.0000 N.3     1  UNL1       -0.3078
     16 N           5.0550    1.1571    0.0000 N.ar    1  UNL1       -0.3565
     17 C           7.8877    2.6550    0.0000 C.3     1  UNL1        0.0075
     18 C           7.0217    2.1550    0.0000 C.3     1  UNL1       -0.0241
     19 C           6.1557    2.6550    0.0000 C.3     1  UNL1        0.0489
     20 C           8.7538    2.1550    0.0000 C.3     1  UNL1        0.0467
     21 C           9.6198    2.6550    0.0000 C.3     1  UNL1        0.2102
     22 C           5.2516    2.1376    0.0000 C.ar    1  UNL1        0.0374
     23 C          10.4858    1.1550    0.0000 C.3     1  UNL1        0.1918
     24 C           9.6198   -0.3450    0.0000 C.3     1  UNL1        0.1134
     25 C          11.3518    0.6550    0.0000 C.3     1  UNL1        0.1342
     26 C          10.4858   -0.8450    0.0000 C.3     1  UNL1        0.1119
     27 C          11.3518   -0.3450    0.0000 C.3     1  UNL1        0.1141
     28 C           4.3799    2.6276    0.0000 C.ar    1  UNL1       -0.0164
     29 C           7.8877    3.6550    0.0000 C.2     1  UNL1        0.0745
     30 C           4.3518    3.6688    0.0000 C.3     1  UNL1       -0.0128
     31 C           5.2436    4.2070    0.0000 C.3     1  UNL1        0.0005
     32 C           8.7538   -0.8450    0.0000 C.3     1  UNL1        0.0796
     33 C           3.6445    1.9499    0.0000 C.ar    1  UNL1        0.0032
     34 C           8.7538    1.1550    0.0000 C.2     1  UNL1       -0.0816
     35 C           7.8877   -2.3450    0.0000 C.3     1  UNL1        0.1880
     36 C           8.7538    4.1550    0.0000 C.2     1  UNL1        0.0981
     37 C           7.8877   -3.3450    0.0000 C.3     1  UNL1        0.1341
     38 C           4.0618    1.0411    0.0000 C.ar    1  UNL1        0.0470
     39 C           7.0217   -3.8450    0.0000 C.3     1  UNL1        0.1141
     40 C           6.1557   -3.3450    0.0000 C.3     1  UNL1        0.1119
     41 C           6.1557   -2.3450    0.0000 C.3     1  UNL1        0.1130
     42 C           7.8877    4.6550    0.0000 C.2     1  UNL1        0.3360
     43 C           2.6090    2.0628    0.0000 C.ar    1  UNL1       -0.0523
     44 C           3.4725    0.1822    0.0000 C.ar    1  UNL1       -0.0378
     45 C           5.2897   -1.8450    0.0000 C.3     1  UNL1        0.0730
     46 C           7.8877    0.6550    0.0000 C.2     1  UNL1       -0.1022
     47 C           2.0000    1.2177    0.0000 C.ar    1  UNL1       -0.0611
     48 C           2.4346    0.2711    0.0000 C.ar    1  UNL1       -0.0598
     49 H           7.3508    2.9650    0.0000 H       1  UNL1        0.0360
     50 H           6.6232    1.6800    0.0000 H       1  UNL1        0.0290
     51 H           7.4202    1.6800    0.0000 H       1  UNL1        0.0290
     52 H           6.6920    2.9660    0.0000 H       1  UNL1        0.0525
     53 H           8.2168    1.8450    0.0000 H       1  UNL1        0.0410
     54 H           9.6198    2.0350    0.0000 H       1  UNL1        0.1062
     55 H           9.9489    1.4650    0.0000 H       1  UNL1        0.0939
     56 H           9.0828   -0.0350    0.0000 H       1  UNL1        0.0647
     57 H          11.8888    0.3450    0.0000 H       1  UNL1        0.0671
     58 H           9.9489   -1.1550    0.0000 H       1  UNL1        0.0647
     59 H          11.3518   -0.9650    0.0000 H       1  UNL1        0.0648
     60 H           6.6862    4.0107    0.0000 H       1  UNL1        0.1226
     61 H           4.1270    4.2467    0.0000 H       1  UNL1        0.0326
     62 H           3.7440    3.5463    0.0000 H       1  UNL1        0.0326
     63 H           5.6354    4.6875    0.0000 H       1  UNL1        0.0427
     64 H           4.8372    4.6752    0.0000 H       1  UNL1        0.0427
     65 H           8.5417   -0.2624    0.0000 H       1  UNL1        0.0587
     66 H           8.1432   -0.9527    0.0000 H       1  UNL1        0.0587
     67 H           9.2907    0.8450    0.0000 H       1  UNL1        0.0571
     68 H           5.4752    0.7012    0.0000 H       1  UNL1        0.1656
     69 H           8.4247   -2.6550    0.0000 H       1  UNL1        0.0937
     70 H           7.8877   -3.9650    0.0000 H       1  UNL1        0.0671
     71 H           8.7538    4.7750    0.0000 H       1  UNL1        0.1029
     72 H           6.4848   -4.1550    0.0000 H       1  UNL1        0.0648
     73 H           6.1557   -3.9650    0.0000 H       1  UNL1        0.0647
     74 H           6.1557   -1.7250    0.0000 H       1  UNL1        0.0647
     75 H          12.2179    1.7750    0.0000 H       1  UNL1        0.2101
     76 H          11.0227   -2.1550    0.0000 H       1  UNL1        0.2100
     77 H          12.7548   -0.5350    0.0000 H       1  UNL1        0.2100
     78 H           2.3568    2.6292    0.0000 H       1  UNL1        0.0624
     79 H           3.7377   -0.3782    0.0000 H       1  UNL1        0.0638
     80 H           4.6791   -1.7374    0.0000 H       1  UNL1        0.0584
     81 H           5.0776   -2.4276    0.0000 H       1  UNL1        0.0584
     82 H           7.3508    0.9650    0.0000 H       1  UNL1        0.0532
     83 H           7.8877    0.0350    0.0000 H       1  UNL1        0.0532
     84 H           9.2907   -3.5350    0.0000 H       1  UNL1        0.2101
     85 H           1.3829    1.2778    0.0000 H       1  UNL1        0.0618
     86 H           6.4848   -5.1550    0.0000 H       1  UNL1        0.2100
     87 H           2.0780   -0.2360    0.0000 H       1  UNL1        0.0618
     88 H           4.7527   -3.5350    0.0000 H       1  UNL1        0.2100
     89 H           9.2907    4.8450    0.0000 H       1  UNL1        0.2954
     90 H           4.7527   -0.5350    0.0000 H       1  UNL1        0.2095
@<TRIPOS>BOND
     1     1    21    1
     2     1    23    1
     3     2    23    1
     4     2    24    1
     5     3    21    1
     6     3    36    1
     7     4    32    1
     8     4    35    1
     9     5    35    1
    10     5    41    1
    11     6    25    1
    12     6    75    1
    13     7    26    1
    14     7    76    1
    15     8    27    1
    16     8    77    1
    17     9    37    1
    18     9    84    1
    19    10    39    1
    20    10    86    1
    21    11    40    1
    22    11    88    1
    23    12    42    1
    24    12    89    1
    25    13    42    2
    26    14    45    1
    27    14    90    1
    28    15    19    1
    29    15    31    1
    30    15    60    1
    31    16    22   ar
    32    16    38   ar
    33    16    68    1
    34    17    18    1
    35    17    20    1
    36    17    29    1
    37    17    49    1
    38    18    19    1
    39    18    50    1
    40    18    51    1
    41    19    22    1
    42    19    52    1
    43    20    21    1
    44    20    34    1
    45    20    53    1
    46    21    54    1
    47    22    28   ar
    48    23    25    1
    49    23    55    1
    50    24    26    1
    51    24    32    1
    52    24    56    1
    53    25    27    1
    54    25    57    1
    55    26    27    1
    56    26    58    1
    57    27    59    1
    58    28    30    1
    59    28    33   ar
    60    29    36    2
    61    29    42    1
    62    30    31    1
    63    30    61    1
    64    30    62    1
    65    31    63    1
    66    31    64    1
    67    32    65    1
    68    32    66    1
    69    33    38   ar
    70    33    43   ar
    71    34    46    2
    72    34    67    1
    73    35    37    1
    74    35    69    1
    75    36    71    1
    76    37    39    1
    77    37    70    1
    78    38    44   ar
    79    39    40    1
    80    39    72    1
    81    40    41    1
    82    40    73    1
    83    41    45    1
    84    41    74    1
    85    43    47   ar
    86    43    78    1
    87    44    48   ar
    88    44    79    1
    89    45    80    1
    90    45    81    1
    91    46    82    1
    92    46    83    1
    93    47    48   ar
    94    47    85    1
    95    48    87    1
