@<TRIPOS>MOLECULE
IMPHY014565
 172 172 0 0 0
SMALL
GASTEIGER

@<TRIPOS>ATOM
      1 O           9.2645   -5.1550    0.0000 O.2     3  LYS3       -0.2738
      2 O          11.9965   -2.6550    0.0000 O.2     4  ILE4       -0.2738
      3 O           6.5324   -2.6550    0.0000 O.2     2  LYS2       -0.2738
      4 O          14.7286   -5.1550    0.0000 O.2     5  ALA5       -0.2738
      5 OG1        16.9292    4.8450    0.0000 O.3     6  THR6       -0.3897
      6 O          15.1972    1.8450    0.0000 O.2     6  THR6       -0.2737
      7 O          12.4651    4.3450    0.0000 O.2     7  TYR7       -0.2738
      8 O           9.7331    1.8450    0.0000 O.2     8  GLN8       -0.2738
      9 O           3.8004   -5.1550    0.0000 O.2     1  GLY1       -0.2744
     10 O           7.0010    4.3450    0.0000 O.2     9  GLU9       -0.2738
     11 OE1        10.5991    6.3450    0.0000 O.2     8  GLN8       -0.2760
     12 O           3.4030    3.3450    0.0000 O.3    10  ARG10      -0.4793
     13 OE1         6.1350   -0.1550    0.0000 O.3     9  GLU9       -0.4806
     14 OXT         4.2690    1.8450    0.0000 O.2    10  ARG10      -0.2489
     15 OH          9.8671   -0.1550    0.0000 O.3     7  TYR7       -0.5068
     16 OE2         7.8671   -0.1550    0.0000 O.2     9  GLU9       -0.2510
     17 N          10.2645   -3.6550    0.0000 N.am    4  ILE4       -0.3022
     18 N           7.5324   -4.1550    0.0000 N.am    3  LYS3       -0.3025
     19 N          12.9965   -4.1550    0.0000 N.am    5  ALA5       -0.3027
     20 N           4.8004   -3.6550    0.0000 N.am    2  LYS2       -0.3030
     21 N          16.9292    2.8450    0.0000 N.am    6  THR6       -0.3004
     22 N          14.1972    3.3450    0.0000 N.am    7  TYR7       -0.3021
     23 N          11.4651    2.8450    0.0000 N.am    8  GLN8       -0.3025
     24 N           8.7331    3.3450    0.0000 N.am    9  GLU9       -0.3025
     25 NZ          7.5324   -1.1550    0.0000 N.3     3  LYS3       -0.3300
     26 N           6.0010    2.8450    0.0000 N.am   10  ARG10      -0.3008
     27 NZ          5.6664   -8.1550    0.0000 N.3     2  LYS2       -0.3300
     28 N           2.0684   -4.1550    0.0000 N.3     1  GLY1       -0.3225
     29 NE2         8.8671    6.3450    0.0000 N.am    8  GLN8       -0.3293
     30 NE          3.4030    6.3450    0.0000 N.pl3  10  ARG10      -0.1138
     31 NH1         2.5369    7.8450    0.0000 N.pl3  10  ARG10      -0.2893
     32 NH2         4.2690    7.8450    0.0000 N.pl3  10  ARG10      -0.2893
     33 CB         11.1305   -5.1550    0.0000 C.3     4  ILE4       -0.0171
     34 CA         11.1305   -4.1550    0.0000 C.3     4  ILE4        0.1020
     35 CA          8.3985   -3.6550    0.0000 C.3     3  LYS3        0.0994
     36 CG1        11.9965   -5.6550    0.0000 C.3     4  ILE4       -0.0512
     37 CB          8.3985   -2.6550    0.0000 C.3     3  LYS3       -0.0259
     38 C           9.2645   -4.1550    0.0000 C.2     3  LYS3        0.2340
     39 CG2        10.2645   -5.6550    0.0000 C.3     4  ILE4       -0.0603
     40 C          11.9965   -3.6550    0.0000 C.2     4  ILE4        0.2342
     41 CG          9.2645   -2.1550    0.0000 C.3     3  LYS3       -0.0498
     42 CA          5.6664   -4.1550    0.0000 C.3     2  LYS2        0.0994
     43 CD1        11.9965   -6.6550    0.0000 C.3     4  ILE4       -0.0650
     44 CD          9.2645   -1.1550    0.0000 C.3     3  LYS3       -0.0406
     45 CA         13.8626   -3.6550    0.0000 C.3     5  ALA5        0.0966
     46 CB          5.6664   -5.1550    0.0000 C.3     2  LYS2       -0.0259
     47 C           6.5324   -3.6550    0.0000 C.2     2  LYS2        0.2339
     48 CG          6.5324   -5.6550    0.0000 C.3     2  LYS2       -0.0498
     49 CA         16.0632    3.3450    0.0000 C.3     6  THR6        0.1252
     50 CE          8.3985   -0.6550    0.0000 C.3     3  LYS3       -0.0069
     51 C          14.7286   -4.1550    0.0000 C.2     5  ALA5        0.2337
     52 CD          6.5324   -6.6550    0.0000 C.3     2  LYS2       -0.0406
     53 CA         13.3312    2.8450    0.0000 C.3     7  TYR7        0.1034
     54 CB         13.8626   -2.6550    0.0000 C.3     5  ALA5       -0.0381
     55 CB         16.0632    4.3450    0.0000 C.3     6  THR6        0.0792
     56 CA         10.5991    3.3450    0.0000 C.3     8  GLN8        0.0999
     57 C          15.1972    2.8450    0.0000 C.2     6  THR6        0.2365
     58 CB         13.3312    1.8450    0.0000 C.3     7  TYR7       -0.0007
     59 CB         10.5991    4.3450    0.0000 C.3     8  GLN8       -0.0177
     60 CA          7.8671    2.8450    0.0000 C.3     9  GLU9        0.0999
     61 C          12.4651    3.3450    0.0000 C.2     7  TYR7        0.2343
     62 CE          5.6664   -7.1550    0.0000 C.3     2  LYS2       -0.0069
     63 C           9.7331    2.8450    0.0000 C.2     8  GLN8        0.2340
     64 C           3.8004   -4.1550    0.0000 C.2     1  GLY1        0.2273
     65 CB          7.8671    1.8450    0.0000 C.3     9  GLU9       -0.0159
     66 CG2        15.1972    4.8450    0.0000 C.3     6  THR6       -0.0367
     67 CG         12.4651    1.3450    0.0000 C.ar    7  TYR7       -0.0449
     68 CG          9.7331    4.8450    0.0000 C.3     8  GLN8        0.0259
     69 C           7.0010    3.3450    0.0000 C.2     9  GLU9        0.2340
     70 CA          5.1350    3.3450    0.0000 C.3    10  ARG10       0.1203
     71 CG          7.0010    1.3450    0.0000 C.3     9  GLU9        0.0469
     72 CB          5.1350    4.3450    0.0000 C.3    10  ARG10      -0.0211
     73 CA          2.9344   -3.6550    0.0000 C.3     1  GLY1        0.0707
     74 CG          4.2690    4.8450    0.0000 C.3    10  ARG10      -0.0164
     75 CD1        12.4651    0.3450    0.0000 C.ar    7  TYR7       -0.0551
     76 CD2        11.5991    1.8450    0.0000 C.ar    7  TYR7       -0.0551
     77 CD          9.7331    5.8450    0.0000 C.2     8  GLN8        0.2106
     78 C           4.2690    2.8450    0.0000 C.2    10  ARG10       0.3253
     79 CE1        11.5991   -0.1550    0.0000 C.ar    7  TYR7       -0.0199
     80 CE2        10.7331    1.3450    0.0000 C.ar    7  TYR7       -0.0199
     81 CD          4.2690    5.8450    0.0000 C.3    10  ARG10       0.1048
     82 CD          7.0010    0.3450    0.0000 C.2     9  GLU9        0.3048
     83 CZ         10.7331    0.3450    0.0000 C.ar    7  TYR7        0.1169
     84 CZ          3.4030    7.3450    0.0000 C.cat  10  ARG10       0.3765
     85 HB         10.5936   -4.8450    0.0000 H       4  ILE4        0.0321
     86 HA         11.1305   -3.5350    0.0000 H       4  ILE4        0.0597
     87 HA          7.8615   -3.3450    0.0000 H       3  LYS3        0.0594
     88 HG11       12.6071   -5.7627    0.0000 H       4  ILE4        0.0266
     89 HG12       12.2086   -5.0724    0.0000 H       4  ILE4        0.0266
     90 HB1         8.1864   -2.0724    0.0000 H       3  LYS3        0.0288
     91 HB2         7.7879   -2.7627    0.0000 H       3  LYS3        0.0288
     92 H          10.8014   -3.3450    0.0000 H       4  ILE4        0.1495
     93 HG21        9.9545   -5.1181    0.0000 H       4  ILE4        0.0233
     94 HG22        9.7276   -5.9650    0.0000 H       4  ILE4        0.0233
     95 HG23       10.5745   -6.1919    0.0000 H       4  ILE4        0.0233
     96 HG1         9.4766   -2.7376    0.0000 H       3  LYS3        0.0266
     97 HG2         9.8751   -2.0473    0.0000 H       3  LYS3        0.0266
     98 H           8.0694   -4.4650    0.0000 H       3  LYS3        0.1495
     99 HA          5.6664   -3.5350    0.0000 H       2  LYS2        0.0594
    100 HD11       11.3765   -6.6550    0.0000 H       4  ILE4        0.0230
    101 HD12       11.9965   -7.2750    0.0000 H       4  ILE4        0.0230
    102 HD13       12.6165   -6.6550    0.0000 H       4  ILE4        0.0230
    103 H          13.5335   -4.4650    0.0000 H       5  ALA5        0.1495
    104 HD1         9.8751   -1.2627    0.0000 H       3  LYS3        0.0277
    105 HD2         9.4766   -0.5724    0.0000 H       3  LYS3        0.0277
    106 HA         13.3256   -3.3450    0.0000 H       5  ALA5        0.0592
    107 HB1         5.0558   -5.0473    0.0000 H       2  LYS2        0.0288
    108 HB2         5.4544   -5.7376    0.0000 H       2  LYS2        0.0288
    109 HG1         7.1430   -5.7627    0.0000 H       2  LYS2        0.0266
    110 HG2         6.7445   -5.0724    0.0000 H       2  LYS2        0.0266
    111 HA         16.0632    2.7250    0.0000 H       6  THR6        0.0621
    112 HE1         8.7970   -0.1801    0.0000 H       3  LYS3        0.0422
    113 HE2         7.9999   -0.1801    0.0000 H       3  LYS3        0.0422
    114 HD1         6.7445   -7.2376    0.0000 H       2  LYS2        0.0277
    115 HD2         7.1430   -6.5473    0.0000 H       2  LYS2        0.0277
    116 H           5.3373   -3.3450    0.0000 H       2  LYS2        0.1495
    117 HA         13.8681    2.5350    0.0000 H       7  TYR7        0.0598
    118 HB1        14.4826   -2.6550    0.0000 H       5  ALA5        0.0252
    119 HB2        13.8626   -2.0350    0.0000 H       5  ALA5        0.0252
    120 HB3        13.2426   -2.6550    0.0000 H       5  ALA5        0.0252
    121 H          17.4662    2.5350    0.0000 H       6  THR6        0.1496
    122 HB         16.0632    4.9650    0.0000 H       6  THR6        0.0614
    123 HA         11.1360    3.6550    0.0000 H       8  GLN8        0.0595
    124 H          14.7341    3.6550    0.0000 H       7  TYR7        0.1495
    125 HB1        13.5432    1.2624    0.0000 H       7  TYR7        0.0336
    126 HB2        13.9417    1.9527    0.0000 H       7  TYR7        0.0336
    127 HB1        11.2097    4.2373    0.0000 H       8  GLN8        0.0292
    128 HB2        10.8112    4.9276    0.0000 H       8  GLN8        0.0292
    129 HA          8.4040    2.5350    0.0000 H       9  GLU9        0.0595
    130 H          12.0021    2.5350    0.0000 H       8  GLN8        0.1495
    131 HE1         5.4544   -6.5724    0.0000 H       2  LYS2        0.0422
    132 HE2         5.0558   -7.2627    0.0000 H       2  LYS2        0.0422
    133 H           9.2700    3.6550    0.0000 H       9  GLU9        0.1495
    134 HB1         8.0791    1.2624    0.0000 H       9  GLU9        0.0293
    135 HB2         8.4776    1.9527    0.0000 H       9  GLU9        0.0293
    136 HG21       15.5072    5.3819    0.0000 H       6  THR6        0.0255
    137 HG22       14.6603    5.1550    0.0000 H       6  THR6        0.0255
    138 HG23       14.8872    4.3081    0.0000 H       6  THR6        0.0255
    139 HZ1         7.5324   -1.7750    0.0000 H       3  LYS3        0.1182
    140 HZ2         6.9955   -0.8450    0.0000 H       3  LYS3        0.1182
    141 HG1         9.1225    4.9527    0.0000 H       8  GLN8        0.0359
    142 HG2         9.5210    4.2624    0.0000 H       8  GLN8        0.0359
    143 HA          5.6720    3.6550    0.0000 H      10  ARG10       0.0614
    144 HG1         6.7890    1.9276    0.0000 H       9  GLU9        0.0378
    145 HG2         6.3905    1.2373    0.0000 H       9  GLU9        0.0378
    146 H           6.5380    2.5350    0.0000 H      10  ARG10       0.1496
    147 HB1         5.7456    4.2373    0.0000 H      10  ARG10       0.0289
    148 HB2         5.3471    4.9276    0.0000 H      10  ARG10       0.0289
    149 HA1         3.3329   -3.1800    0.0000 H       1  GLY1        0.0518
    150 HA2         2.5358   -3.1800    0.0000 H       1  GLY1        0.0518
    151 HG1        16.9292    5.4650    0.0000 H       6  THR6        0.2099
    152 HZ1         5.1295   -8.4650    0.0000 H       2  LYS2        0.1182
    153 HZ2         6.2034   -8.4650    0.0000 H       2  LYS2        0.1182
    154 HG1         3.6584    4.9527    0.0000 H      10  ARG10       0.0298
    155 HG2         4.0569    4.2624    0.0000 H      10  ARG10       0.0298
    156 HD1        13.0021    0.0350    0.0000 H       7  TYR7        0.0621
    157 HD2        11.5991    2.4650    0.0000 H       7  TYR7        0.0621
    158 HD1         4.8796    5.7373    0.0000 H      10  ARG10       0.0693
    159 HD2         4.4810    6.4276    0.0000 H      10  ARG10       0.0693
    160 HE1        11.5991   -0.7750    0.0000 H       7  TYR7        0.0654
    161 HE2        10.1962    1.6550    0.0000 H       7  TYR7        0.0654
    162 H1          2.0684   -4.7750    0.0000 H       1  GLY1        0.1186
    163 H2          2.6053   -3.8450    0.0000 H       1  GLY1        0.1186
    164 HE21        8.8671    6.9650    0.0000 H       8  GLN8        0.1449
    165 HE22        8.3301    6.0350    0.0000 H       8  GLN8        0.1449
    166 H           2.8660    3.0350    0.0000 H      10  ARG10       0.2951
    167 HE1         5.5981    0.1550    0.0000 H       9  GLU9        0.2951
    168 HH          9.3301    0.1550    0.0000 H       7  TYR7        0.2921
    169 HH11        2.5369    8.4650    0.0000 H      10  ARG10       0.2546
    170 HH12        2.0000    7.5350    0.0000 H      10  ARG10       0.2546
    171 HH21        4.2690    8.4650    0.0000 H      10  ARG10       0.2546
    172 HH22        4.8059    7.5350    0.0000 H      10  ARG10       0.2546
@<TRIPOS>BOND
     1     1    38    2
     2     2    40    2
     3     3    47    2
     4     4    51    2
     5    55     5    1
     6     5   151    1
     7     6    57    2
     8     7    61    2
     9     8    63    2
    10     9    64    2
    11    10    69    2
    12    11    77    2
    13    12    78    1
    14    12   166    1
    15    13    82    1
    16    13   167    1
    17    14    78    2
    18    15    83    1
    19    15   168    1
    20    16    82    2
    21    34    17    1
    22    17    38   am
    23    17    92    1
    24    35    18    1
    25    18    47   am
    26    18    98    1
    27    19    40   am
    28    45    19    1
    29    19   103    1
    30    42    20    1
    31    20    64   am
    32    20   116    1
    33    49    21    1
    34    21    51   am
    35    21   121    1
    36    53    22    1
    37    22    57   am
    38    22   124    1
    39    56    23    1
    40    23    61   am
    41    23   130    1
    42    60    24    1
    43    24    63   am
    44    24   133    1
    45    25    50    1
    46    25   139    1
    47    25   140    1
    48    26    69   am
    49    70    26    1
    50    26   146    1
    51    27    62    1
    52    27   152    1
    53    27   153    1
    54    28    73    1
    55    28   162    1
    56    28   163    1
    57    29    77   am
    58    29   164    1
    59    29   165    1
    60    30    81    1
    61    30    84    2
    62    31    84    1
    63    31   169    1
    64    31   170    1
    65    32    84    1
    66    32   171    1
    67    32   172    1
    68    33    34    1
    69    33    36    1
    70    33    39    1
    71    33    85    1
    72    34    40    1
    73    34    86    1
    74    35    37    1
    75    35    38    1
    76    35    87    1
    77    36    43    1
    78    36    88    1
    79    36    89    1
    80    37    41    1
    81    37    90    1
    82    37    91    1
    83    39    93    1
    84    39    94    1
    85    39    95    1
    86    41    44    1
    87    41    96    1
    88    41    97    1
    89    42    46    1
    90    42    47    1
    91    42    99    1
    92    43   100    1
    93    43   101    1
    94    43   102    1
    95    44    50    1
    96    44   104    1
    97    44   105    1
    98    45    51    1
    99    45    54    1
   100    45   106    1
   101    46    48    1
   102    46   107    1
   103    46   108    1
   104    48    52    1
   105    48   109    1
   106    48   110    1
   107    49    55    1
   108    49    57    1
   109    49   111    1
   110    50   112    1
   111    50   113    1
   112    52    62    1
   113    52   114    1
   114    52   115    1
   115    53    58    1
   116    53    61    1
   117    53   117    1
   118    54   118    1
   119    54   119    1
   120    54   120    1
   121    55    66    1
   122    55   122    1
   123    56    59    1
   124    56    63    1
   125    56   123    1
   126    58    67    1
   127    58   125    1
   128    58   126    1
   129    59    68    1
   130    59   127    1
   131    59   128    1
   132    60    65    1
   133    60    69    1
   134    60   129    1
   135    62   131    1
   136    62   132    1
   137    64    73    1
   138    65    71    1
   139    65   134    1
   140    65   135    1
   141    66   136    1
   142    66   137    1
   143    66   138    1
   144    67    75   ar
   145    67    76   ar
   146    68    77    1
   147    68   141    1
   148    68   142    1
   149    70    72    1
   150    70    78    1
   151    70   143    1
   152    71    82    1
   153    71   144    1
   154    71   145    1
   155    72    74    1
   156    72   147    1
   157    72   148    1
   158    73   149    1
   159    73   150    1
   160    74    81    1
   161    74   154    1
   162    74   155    1
   163    75    79   ar
   164    75   156    1
   165    76    80   ar
   166    76   157    1
   167    79    83   ar
   168    79   160    1
   169    80    83   ar
   170    80   161    1
   171    81   158    1
   172    81   159    1
