@<TRIPOS>MOLECULE
IMPHY014020
 50 52 0 0 0
SMALL
GASTEIGER

@<TRIPOS>ATOM
      1 O           6.3981   -1.8314    0.0000 O.2     1  UNL1       -0.2919
      2 O           3.7782    1.7000    0.0000 O.2     1  UNL1       -0.2835
      3 O           7.3022   -0.3346    0.0000 O.2     1  UNL1       -0.5056
      4 O           5.5442    2.7378    0.0000 O.2     1  UNL1       -0.2834
      5 C           3.8000   -1.3314    0.0000 C.3     1  UNL1       -0.0193
      6 C           3.8000   -0.3314    0.0000 C.3     1  UNL1        0.0012
      7 C           2.9061   -1.8661    0.0000 C.3     1  UNL1       -0.0309
      8 C           2.9061    0.2032    0.0000 C.3     1  UNL1       -0.0432
      9 C           2.0000   -1.3522    0.0000 C.3     1  UNL1       -0.0476
     10 C           2.0000   -0.3106    0.0000 C.3     1  UNL1       -0.0518
     11 C           4.6660   -1.8314    0.0000 C.3     1  UNL1        0.0147
     12 C           4.6660    0.1686    0.0000 C.2     1  UNL1        0.0233
     13 C           3.8000    0.6686    0.0000 C.3     1  UNL1       -0.0551
     14 C           2.4161   -2.7378    0.0000 C.3     1  UNL1       -0.0595
     15 C           3.4160   -2.7263    0.0000 C.3     1  UNL1       -0.0595
     16 C           5.5321   -0.3314    0.0000 C.2     1  UNL1        0.0666
     17 C           5.5321   -1.3314    0.0000 C.2     1  UNL1        0.1674
     18 C           4.6500    1.2101    0.0000 C.2     1  UNL1        0.2301
     19 C           6.4421    0.1754    0.0000 C.2     1  UNL1        0.1349
     20 C           6.4501    1.2170    0.0000 C.2     1  UNL1        0.0477
     21 C           5.5480    1.7378    0.0000 C.2     1  UNL1        0.2324
     22 C           7.3180    1.7137    0.0000 C.3     1  UNL1       -0.0143
     23 C           7.3219    2.7137    0.0000 C.3     1  UNL1       -0.0584
     24 C           8.1821    1.2104    0.0000 C.3     1  UNL1       -0.0584
     25 H           3.8066   -2.1814    0.0000 H       1  UNL1        0.0319
     26 H           3.3107    0.6730    0.0000 H       1  UNL1        0.0274
     27 H           2.5124    0.6823    0.0000 H       1  UNL1        0.0274
     28 H           1.3891   -1.2461    0.0000 H       1  UNL1        0.0271
     29 H           1.7909   -1.9359    0.0000 H       1  UNL1        0.0271
     30 H           1.7909    0.2731    0.0000 H       1  UNL1        0.0266
     31 H           1.3891   -0.4167    0.0000 H       1  UNL1        0.0266
     32 H           4.2675   -2.3064    0.0000 H       1  UNL1        0.0348
     33 H           5.0646   -2.3064    0.0000 H       1  UNL1        0.0348
     34 H           4.4200    0.6686    0.0000 H       1  UNL1        0.0238
     35 H           3.8000    1.2886    0.0000 H       1  UNL1        0.0238
     36 H           3.1800    0.6686    0.0000 H       1  UNL1        0.0238
     37 H           1.8756   -2.4341    0.0000 H       1  UNL1        0.0235
     38 H           2.1123   -3.2783    0.0000 H       1  UNL1        0.0235
     39 H           2.9566   -3.0416    0.0000 H       1  UNL1        0.0235
     40 H           2.8827   -3.0425    0.0000 H       1  UNL1        0.0235
     41 H           3.7322   -3.2596    0.0000 H       1  UNL1        0.0235
     42 H           3.9494   -2.4101    0.0000 H       1  UNL1        0.0235
     43 H           7.3156    1.0937    0.0000 H       1  UNL1        0.0346
     44 H           7.8427   -0.0308    0.0000 H       1  UNL1        0.2922
     45 H           7.9419    2.7113    0.0000 H       1  UNL1        0.0235
     46 H           7.3243    3.3337    0.0000 H       1  UNL1        0.0235
     47 H           6.7019    2.7161    0.0000 H       1  UNL1        0.0235
     48 H           7.8701    0.6746    0.0000 H       1  UNL1        0.0235
     49 H           8.7179    0.8983    0.0000 H       1  UNL1        0.0235
     50 H           8.4942    1.7461    0.0000 H       1  UNL1        0.0235
@<TRIPOS>BOND
     1     1    17    2
     2     2    18    2
     3     3    19    1
     4     3    44    1
     5     4    21    2
     6     5     6    1
     7     5     7    1
     8     5    11    1
     9     5    25    1
    10     6     8    1
    11     6    12    1
    12     6    13    1
    13     7     9    1
    14     7    14    1
    15     7    15    1
    16     8    10    1
    17     8    26    1
    18     8    27    1
    19     9    10    1
    20     9    28    1
    21     9    29    1
    22    10    30    1
    23    10    31    1
    24    11    17    1
    25    11    32    1
    26    11    33    1
    27    12    16    2
    28    12    18    1
    29    13    34    1
    30    13    35    1
    31    13    36    1
    32    14    37    1
    33    14    38    1
    34    14    39    1
    35    15    40    1
    36    15    41    1
    37    15    42    1
    38    16    17    1
    39    16    19    1
    40    18    21    1
    41    19    20    2
    42    20    21    1
    43    20    22    1
    44    22    23    1
    45    22    24    1
    46    22    43    1
    47    23    45    1
    48    23    46    1
    49    23    47    1
    50    24    48    1
    51    24    49    1
    52    24    50    1
