@<TRIPOS>MOLECULE
IMPHY015236
 65 64 0 0 0
SMALL
GASTEIGER

@<TRIPOS>ATOM
      1 C           8.0622    0.2500    0.0000 C.3     1  UNL1       -0.0439
      2 C           8.9282    0.7500    0.0000 C.3     1  UNL1       -0.0505
      3 C          11.5263    0.2500    0.0000 C.3     1  UNL1       -0.0439
      4 C           9.7942    0.2500    0.0000 C.3     1  UNL1       -0.0526
      5 C           7.1962    0.7500    0.0000 C.3     1  UNL1       -0.0505
      6 C          10.6603    0.7500    0.0000 C.3     1  UNL1       -0.0505
      7 C           6.3301    0.2500    0.0000 C.3     1  UNL1       -0.0526
      8 C          12.3923    0.7500    0.0000 C.3     1  UNL1       -0.0505
      9 C           5.4641    0.7500    0.0000 C.3     1  UNL1       -0.0505
     10 C           4.5981    0.2500    0.0000 C.3     1  UNL1       -0.0439
     11 C          13.2583    0.2500    0.0000 C.3     1  UNL1       -0.0526
     12 C           8.0622   -0.7500    0.0000 C.3     1  UNL1       -0.0624
     13 C          11.5263   -0.7500    0.0000 C.3     1  UNL1       -0.0624
     14 C          14.1244    0.7500    0.0000 C.3     1  UNL1       -0.0507
     15 C           3.7320    0.7500    0.0000 C.3     1  UNL1       -0.0507
     16 C          14.9904    0.2500    0.0000 C.3     1  UNL1       -0.0467
     17 C           4.5981   -0.7500    0.0000 C.3     1  UNL1       -0.0624
     18 C           2.8660    0.2500    0.0000 C.3     1  UNL1       -0.0557
     19 C          15.8564    0.7500    0.0000 C.3     1  UNL1       -0.0627
     20 C          14.9904   -0.7500    0.0000 C.3     1  UNL1       -0.0627
     21 C           2.0000    0.7500    0.0000 C.3     1  UNL1       -0.0653
     22 H           7.5252   -0.0600    0.0000 H       1  UNL1        0.0298
     23 H           9.3267    1.2250    0.0000 H       1  UNL1        0.0268
     24 H           8.5297    1.2250    0.0000 H       1  UNL1        0.0268
     25 H          12.0632   -0.0600    0.0000 H       1  UNL1        0.0298
     26 H           9.3957   -0.2249    0.0000 H       1  UNL1        0.0265
     27 H          10.1928   -0.2249    0.0000 H       1  UNL1        0.0265
     28 H           7.5947    1.2250    0.0000 H       1  UNL1        0.0268
     29 H           6.7976    1.2250    0.0000 H       1  UNL1        0.0268
     30 H          11.0588    1.2250    0.0000 H       1  UNL1        0.0268
     31 H          10.2617    1.2250    0.0000 H       1  UNL1        0.0268
     32 H           5.9316   -0.2249    0.0000 H       1  UNL1        0.0265
     33 H           6.7287   -0.2249    0.0000 H       1  UNL1        0.0265
     34 H          12.7908    1.2250    0.0000 H       1  UNL1        0.0268
     35 H          11.9938    1.2250    0.0000 H       1  UNL1        0.0268
     36 H           5.8626    1.2250    0.0000 H       1  UNL1        0.0268
     37 H           5.0656    1.2250    0.0000 H       1  UNL1        0.0268
     38 H           5.1350   -0.0600    0.0000 H       1  UNL1        0.0298
     39 H          12.8598   -0.2249    0.0000 H       1  UNL1        0.0265
     40 H          13.6569   -0.2249    0.0000 H       1  UNL1        0.0265
     41 H           7.4422   -0.7500    0.0000 H       1  UNL1        0.0232
     42 H           8.0622   -1.3700    0.0000 H       1  UNL1        0.0232
     43 H           8.6822   -0.7500    0.0000 H       1  UNL1        0.0232
     44 H          10.9063   -0.7500    0.0000 H       1  UNL1        0.0232
     45 H          11.5263   -1.3700    0.0000 H       1  UNL1        0.0232
     46 H          12.1463   -0.7500    0.0000 H       1  UNL1        0.0232
     47 H          14.5229    1.2250    0.0000 H       1  UNL1        0.0268
     48 H          13.7258    1.2250    0.0000 H       1  UNL1        0.0268
     49 H           4.1306    1.2250    0.0000 H       1  UNL1        0.0268
     50 H           3.3335    1.2250    0.0000 H       1  UNL1        0.0268
     51 H          15.5273   -0.0600    0.0000 H       1  UNL1        0.0295
     52 H           3.9781   -0.7500    0.0000 H       1  UNL1        0.0232
     53 H           4.5981   -1.3700    0.0000 H       1  UNL1        0.0232
     54 H           5.2181   -0.7500    0.0000 H       1  UNL1        0.0232
     55 H           2.4675   -0.2249    0.0000 H       1  UNL1        0.0263
     56 H           3.2646   -0.2249    0.0000 H       1  UNL1        0.0263
     57 H          16.1664    0.2131    0.0000 H       1  UNL1        0.0232
     58 H          16.3933    1.0600    0.0000 H       1  UNL1        0.0232
     59 H          15.5464    1.2869    0.0000 H       1  UNL1        0.0232
     60 H          14.3704   -0.7500    0.0000 H       1  UNL1        0.0232
     61 H          14.9904   -1.3700    0.0000 H       1  UNL1        0.0232
     62 H          15.6104   -0.7500    0.0000 H       1  UNL1        0.0232
     63 H           2.3100    1.2869    0.0000 H       1  UNL1        0.0230
     64 H           1.4631    1.0600    0.0000 H       1  UNL1        0.0230
     65 H           1.6900    0.2131    0.0000 H       1  UNL1        0.0230
@<TRIPOS>BOND
     1     1     2    1
     2     1     5    1
     3     1    12    1
     4     1    22    1
     5     2     4    1
     6     2    23    1
     7     2    24    1
     8     3     6    1
     9     3     8    1
    10     3    13    1
    11     3    25    1
    12     4     6    1
    13     4    26    1
    14     4    27    1
    15     5     7    1
    16     5    28    1
    17     5    29    1
    18     6    30    1
    19     6    31    1
    20     7     9    1
    21     7    32    1
    22     7    33    1
    23     8    11    1
    24     8    34    1
    25     8    35    1
    26     9    10    1
    27     9    36    1
    28     9    37    1
    29    10    15    1
    30    10    17    1
    31    10    38    1
    32    11    14    1
    33    11    39    1
    34    11    40    1
    35    12    41    1
    36    12    42    1
    37    12    43    1
    38    13    44    1
    39    13    45    1
    40    13    46    1
    41    14    16    1
    42    14    47    1
    43    14    48    1
    44    15    18    1
    45    15    49    1
    46    15    50    1
    47    16    19    1
    48    16    20    1
    49    16    51    1
    50    17    52    1
    51    17    53    1
    52    17    54    1
    53    18    21    1
    54    18    55    1
    55    18    56    1
    56    19    57    1
    57    19    58    1
    58    19    59    1
    59    20    60    1
    60    20    61    1
    61    20    62    1
    62    21    63    1
    63    21    64    1
    64    21    65    1
