@<TRIPOS>MOLECULE
IMPHY002887
 20 20 0 0 0
SMALL
GASTEIGER

@<TRIPOS>ATOM
      1 S           2.8660    2.1900    0.0000 S.2     1  UNL1       -0.0187
      2 O           2.0000    0.6900    0.0000 O.2     1  UNL1       -0.2698
      3 N           3.7320    0.6900    0.0000 N.am    1  UNL1       -0.2640
      4 N           4.5981    2.1900    0.0000 N.am    1  UNL1       -0.3403
      5 C           2.8660   -0.8100    0.0000 C.ar    1  UNL1        0.0371
      6 C           2.0000   -1.3100    0.0000 C.ar    1  UNL1       -0.0496
      7 C           3.7320   -1.3100    0.0000 C.ar    1  UNL1       -0.0496
      8 C           2.8660    0.1900    0.0000 C.2     1  UNL1        0.2495
      9 C           2.0000   -2.3100    0.0000 C.ar    1  UNL1       -0.0610
     10 C           3.7320   -2.3100    0.0000 C.ar    1  UNL1       -0.0610
     11 C           2.8660   -2.8100    0.0000 C.ar    1  UNL1       -0.0617
     12 C           3.7320    1.6900    0.0000 C.2     1  UNL1        0.1342
     13 H           1.4631   -1.0000    0.0000 H       1  UNL1        0.0625
     14 H           4.2690   -1.0000    0.0000 H       1  UNL1        0.0625
     15 H           1.4631   -2.6200    0.0000 H       1  UNL1        0.0618
     16 H           4.2690   -2.6200    0.0000 H       1  UNL1        0.0618
     17 H           2.8660   -3.4300    0.0000 H       1  UNL1        0.0618
     18 H           4.2690    0.3800    0.0000 H       1  UNL1        0.1568
     19 H           4.5981    2.8100    0.0000 H       1  UNL1        0.1440
     20 H           5.1350    1.8800    0.0000 H       1  UNL1        0.1440
@<TRIPOS>BOND
     1     1    12    2
     2     2     8    2
     3     3     8   am
     4     3    12    1
     5     3    18    1
     6     4    12    1
     7     4    19    1
     8     4    20    1
     9     5     6   ar
    10     5     7   ar
    11     5     8    1
    12     6     9   ar
    13     6    13    1
    14     7    10   ar
    15     7    14    1
    16     9    11   ar
    17     9    15    1
    18    10    11   ar
    19    10    16    1
    20    11    17    1
