@<TRIPOS>MOLECULE
IMPHY016653
 14 13 0 0 0
SMALL
GASTEIGER

@<TRIPOS>ATOM
      1 S           4.5981    0.2500    0.0000 S.3     1  UNL1       -0.0821
      2 S           3.7320   -0.2500    0.0000 S.3     1  UNL1       -0.0245
      3 S           2.8660    0.2500    0.0000 S.3     1  UNL1       -0.0852
      4 C           5.4641   -0.2500    0.0000 C.3     1  UNL1        0.0019
      5 C           6.3301    0.2500    0.0000 C.3     1  UNL1       -0.0554
      6 C           2.0000   -0.2500    0.0000 C.3     1  UNL1       -0.0071
      7 H           5.0656   -0.7249    0.0000 H       1  UNL1        0.0382
      8 H           5.8626   -0.7249    0.0000 H       1  UNL1        0.0382
      9 H           6.6401   -0.2869    0.0000 H       1  UNL1        0.0238
     10 H           6.8671    0.5600    0.0000 H       1  UNL1        0.0238
     11 H           6.0201    0.7869    0.0000 H       1  UNL1        0.0238
     12 H           1.6900    0.2869    0.0000 H       1  UNL1        0.0349
     13 H           1.4631   -0.5600    0.0000 H       1  UNL1        0.0349
     14 H           2.3100   -0.7869    0.0000 H       1  UNL1        0.0349
@<TRIPOS>BOND
     1     1     2    1
     2     1     4    1
     3     2     3    1
     4     3     6    1
     5     4     5    1
     6     4     7    1
     7     4     8    1
     8     5     9    1
     9     5    10    1
    10     5    11    1
    11     6    12    1
    12     6    13    1
    13     6    14    1
