@<TRIPOS>MOLECULE
IMPHY002072
 25 26 0 0 0
SMALL
GASTEIGER

@<TRIPOS>ATOM
      1 O           2.0000   -0.6902    0.0000 O.2     1  UNL1       -0.2924
      2 C           6.3887   -0.0329    0.0000 C.3     1  UNL1       -0.0247
      3 C           5.2486    0.9242    0.0000 C.3     1  UNL1       -0.0278
      4 C           4.9898   -0.0417    0.0000 C.3     1  UNL1       -0.0074
      5 C           4.5120    1.9068    0.0000 C.3     1  UNL1       -0.0419
      6 C           3.2153    0.6130    0.0000 C.3     1  UNL1        0.0135
      7 C           3.7687   -0.9074    0.0000 C.2     1  UNL1       -0.0084
      8 C           6.8887   -0.8990    0.0000 C.3     1  UNL1       -0.0590
      9 C           7.2547    0.4671    0.0000 C.3     1  UNL1       -0.0590
     10 C           2.9397   -0.3482    0.0000 C.2     1  UNL1        0.1592
     11 C           3.8036   -1.9068    0.0000 C.2     1  UNL1       -0.0919
     12 H           5.6989    1.3504    0.0000 H       1  UNL1        0.0310
     13 H           5.1798   -0.6319    0.0000 H       1  UNL1        0.0355
     14 H           4.8298    2.4392    0.0000 H       1  UNL1        0.0274
     15 H           3.8988    1.9988    0.0000 H       1  UNL1        0.0274
     16 H           3.2103    1.2330    0.0000 H       1  UNL1        0.0348
     17 H           2.6010    0.6968    0.0000 H       1  UNL1        0.0348
     18 H           6.3518   -1.2090    0.0000 H       1  UNL1        0.0235
     19 H           7.1987   -1.4359    0.0000 H       1  UNL1        0.0235
     20 H           7.4256   -0.5890    0.0000 H       1  UNL1        0.0235
     21 H           7.5647   -0.0699    0.0000 H       1  UNL1        0.0235
     22 H           7.7916    0.7771    0.0000 H       1  UNL1        0.0235
     23 H           6.9447    1.0040    0.0000 H       1  UNL1        0.0235
     24 H           3.2778   -2.2354    0.0000 H       1  UNL1        0.0539
     25 H           4.3511   -2.1979    0.0000 H       1  UNL1        0.0539
@<TRIPOS>BOND
     1     1    10    2
     2     2     3    1
     3     2     4    1
     4     2     8    1
     5     2     9    1
     6     3     5    1
     7     3     6    1
     8     3    12    1
     9     4     5    1
    10     4     7    1
    11     4    13    1
    12     5    14    1
    13     5    15    1
    14     6    10    1
    15     6    16    1
    16     6    17    1
    17     7    10    1
    18     7    11    2
    19     8    18    1
    20     8    19    1
    21     8    20    1
    22     9    21    1
    23     9    22    1
    24     9    23    1
    25    11    24    1
    26    11    25    1
