@<TRIPOS>MOLECULE
IMPHY009042
 76 81 0 0 0
SMALL
GASTEIGER

@<TRIPOS>ATOM
      1 O           4.3742   -2.2894    0.0000 O.3     1  UNL1       -0.3443
      2 O           4.8074    0.5605    0.0000 O.2     1  UNL1       -0.2936
      3 O           6.4943   -0.4394    0.0000 O.2     1  UNL1       -0.2936
      4 O           3.1982    1.9841    0.0000 O.3     1  UNL1       -0.3883
      5 C           3.7972    0.2273    0.0000 C.3     1  UNL1        0.0543
      6 C           4.1837   -1.3048    0.0000 C.3     1  UNL1        0.1714
      7 C           5.1180   -1.6167    0.0000 C.3     1  UNL1        0.1673
      8 C           4.6982   -0.2065    0.0000 C.3     1  UNL1        0.0484
      9 C           2.9276   -0.3461    0.0000 C.3     1  UNL1        0.0027
     10 C           3.2153   -1.2714    0.0000 C.3     1  UNL1        0.0241
     11 C           4.5344   -0.4015    0.0000 C.2     1  UNL1        0.1765
     12 C           5.5358   -0.7247    0.0000 C.2     1  UNL1        0.1758
     13 C           3.5747    1.2023    0.0000 C.3     1  UNL1       -0.0098
     14 C           5.5992    0.2273    0.0000 C.3     1  UNL1       -0.0390
     15 C           4.1982    1.9841    0.0000 C.3     1  UNL1        0.0703
     16 C           4.7920   -1.2439    0.0000 C.3     1  UNL1       -0.0211
     17 C           5.9220   -2.2114    0.0000 C.3     1  UNL1       -0.0073
     18 C           5.1982    1.9841    0.0000 C.3     1  UNL1       -0.0069
     19 C           2.9975   -1.3854    0.0000 C.2     1  UNL1       -0.0718
     20 C           5.8217    1.2023    0.0000 C.3     1  UNL1       -0.0462
     21 C           3.9360   -1.8373    0.0000 C.2     1  UNL1       -0.0838
     22 C           2.6086   -2.0663    0.0000 C.2     1  UNL1       -0.0784
     23 C           5.7329    2.8780    0.0000 C.3     1  UNL1       -0.0295
     24 C           3.6635    2.8780    0.0000 C.3     1  UNL1       -0.0237
     25 C           5.8090   -3.2050    0.0000 C.3     1  UNL1       -0.0595
     26 C           6.8389   -1.8124    0.0000 C.3     1  UNL1       -0.0595
     27 C           5.2190    3.7841    0.0000 C.3     1  UNL1       -0.0474
     28 C           4.1774    3.7841    0.0000 C.3     1  UNL1       -0.0500
     29 C           2.0000   -1.4562    0.0000 C.3     1  UNL1       -0.0435
     30 C           2.9936   -2.9892    0.0000 C.2     1  UNL1       -0.0792
     31 C           6.6046    3.3680    0.0000 C.3     1  UNL1       -0.0595
     32 C           6.5930    2.3681    0.0000 C.3     1  UNL1       -0.0595
     33 C           2.3869   -3.7841    0.0000 C.3     1  UNL1       -0.0440
     34 C           3.9854   -3.1172    0.0000 C.3     1  UNL1       -0.0440
     35 H           2.1272   -0.0601    0.0000 H       1  UNL1        0.0362
     36 H           3.4806   -1.8317    0.0000 H       1  UNL1        0.0382
     37 H           3.1881    1.6870    0.0000 H       1  UNL1        0.0303
     38 H           3.0161    0.9333    0.0000 H       1  UNL1        0.0303
     39 H           5.7371   -0.3771    0.0000 H       1  UNL1        0.0275
     40 H           6.2192    0.2273    0.0000 H       1  UNL1        0.0275
     41 H           5.0528   -1.8064    0.0000 H       1  UNL1        0.0317
     42 H           5.3909   -1.0832    0.0000 H       1  UNL1        0.0317
     43 H           5.3534   -2.4587    0.0000 H       1  UNL1        0.0329
     44 H           6.0463    2.0411    0.0000 H       1  UNL1        0.0334
     45 H           6.3803    0.9333    0.0000 H       1  UNL1        0.0269
     46 H           6.2083    1.6870    0.0000 H       1  UNL1        0.0269
     47 H           3.9847   -2.4554    0.0000 H       1  UNL1        0.0572
     48 H           1.9937   -1.9870    0.0000 H       1  UNL1        0.0575
     49 H           3.1845    3.2717    0.0000 H       1  UNL1        0.0293
     50 H           3.1938    2.4734    0.0000 H       1  UNL1        0.0293
     51 H           5.1929   -3.1349    0.0000 H       1  UNL1        0.0233
     52 H           5.7389   -3.8210    0.0000 H       1  UNL1        0.0233
     53 H           6.4250   -3.2750    0.0000 H       1  UNL1        0.0233
     54 H           7.0863   -2.3810    0.0000 H       1  UNL1        0.0233
     55 H           7.4075   -1.5651    0.0000 H       1  UNL1        0.0233
     56 H           6.5916   -1.2439    0.0000 H       1  UNL1        0.0233
     57 H           5.8027    3.9932    0.0000 H       1  UNL1        0.0271
     58 H           5.1129    4.3950    0.0000 H       1  UNL1        0.0271
     59 H           4.2835    4.3950    0.0000 H       1  UNL1        0.0266
     60 H           3.5937    3.9932    0.0000 H       1  UNL1        0.0266
     61 H           1.9561   -0.8378    0.0000 H       1  UNL1        0.0274
     62 H           1.3816   -1.5002    0.0000 H       1  UNL1        0.0274
     63 H           2.0439   -2.0747    0.0000 H       1  UNL1        0.0274
     64 H           2.8882    2.5210    0.0000 H       1  UNL1        0.2102
     65 H           6.2769    1.8347    0.0000 H       1  UNL1        0.0235
     66 H           7.1264    2.0519    0.0000 H       1  UNL1        0.0235
     67 H           6.9092    2.9014    0.0000 H       1  UNL1        0.0235
     68 H           6.9084    2.8275    0.0000 H       1  UNL1        0.0235
     69 H           7.1451    3.6718    0.0000 H       1  UNL1        0.0235
     70 H           6.3008    3.9085    0.0000 H       1  UNL1        0.0235
     71 H           1.8941   -3.4079    0.0000 H       1  UNL1        0.0274
     72 H           2.0108   -4.2770    0.0000 H       1  UNL1        0.0274
     73 H           2.8798   -4.1603    0.0000 H       1  UNL1        0.0274
     74 H           3.9061   -3.7321    0.0000 H       1  UNL1        0.0274
     75 H           4.6003   -3.1965    0.0000 H       1  UNL1        0.0274
     76 H           4.0648   -2.5023    0.0000 H       1  UNL1        0.0274
@<TRIPOS>BOND
     1     6     1    1
     2     1     7    1
     3     2    11    2
     4     3    12    2
     5    15     4    1
     6     4    64    1
     7     5     8    1
     8     5     9    1
     9     5    11    1
    10     5    13    1
    11     6     7    1
    12     6    10    1
    13     6    11    1
    14     7    12    1
    15     7    17    1
    16     8    12    1
    17     8    14    1
    18     8    16    1
    19     9    10    1
    20     9    19    1
    21     9    35    1
    22    10    22    1
    23    10    36    1
    24    13    15    1
    25    13    37    1
    26    13    38    1
    27    14    20    1
    28    14    39    1
    29    14    40    1
    30    15    18    1
    31    15    24    1
    32    16    21    1
    33    16    41    1
    34    16    42    1
    35    17    25    1
    36    17    26    1
    37    17    43    1
    38    18    20    1
    39    18    23    1
    40    18    44    1
    41    19    21    2
    42    19    29    1
    43    20    45    1
    44    20    46    1
    45    21    47    1
    46    22    30    2
    47    22    48    1
    48    23    27    1
    49    23    31    1
    50    23    32    1
    51    24    28    1
    52    24    49    1
    53    24    50    1
    54    25    51    1
    55    25    52    1
    56    25    53    1
    57    26    54    1
    58    26    55    1
    59    26    56    1
    60    27    28    1
    61    27    57    1
    62    27    58    1
    63    28    59    1
    64    28    60    1
    65    29    61    1
    66    29    62    1
    67    29    63    1
    68    30    33    1
    69    30    34    1
    70    31    68    1
    71    31    69    1
    72    31    70    1
    73    32    65    1
    74    32    66    1
    75    32    67    1
    76    33    71    1
    77    33    72    1
    78    33    73    1
    79    34    74    1
    80    34    75    1
    81    34    76    1
