@<TRIPOS>MOLECULE
IMPHY010002
 31 31 0 0 0
SMALL
GASTEIGER

@<TRIPOS>ATOM
      1 O           4.5981   -2.5000    0.0000 O.3     1  UNL1       -0.4885
      2 O           2.8660   -1.5000    0.0000 O.3     1  UNL1       -0.4913
      3 O           6.3301   -1.5000    0.0000 O.3     1  UNL1       -0.4913
      4 C           4.5981    0.5000    0.0000 C.ar    1  UNL1       -0.0182
      5 C           4.5981   -1.5000    0.0000 C.ar    1  UNL1        0.2035
      6 C           3.7320   -1.0000    0.0000 C.ar    1  UNL1        0.1657
      7 C           5.4641   -1.0000    0.0000 C.ar    1  UNL1        0.1657
      8 C           3.7320    0.0000    0.0000 C.ar    1  UNL1       -0.0089
      9 C           5.4641    0.0000    0.0000 C.ar    1  UNL1       -0.0089
     10 C           4.5981    1.5000    0.0000 C.2     1  UNL1       -0.0586
     11 C           5.4641    2.0000    0.0000 C.2     1  UNL1       -0.0865
     12 C           3.7320   -3.0000    0.0000 C.3     1  UNL1        0.0791
     13 C           2.0000   -1.0000    0.0000 C.3     1  UNL1        0.0790
     14 C           7.1962   -1.0000    0.0000 C.3     1  UNL1        0.0790
     15 C           5.4641    3.0000    0.0000 C.3     1  UNL1       -0.0465
     16 H           3.1951    0.3100    0.0000 H       1  UNL1        0.0661
     17 H           6.0010    0.3100    0.0000 H       1  UNL1        0.0661
     18 H           4.0611    1.8100    0.0000 H       1  UNL1        0.0620
     19 H           6.0010    1.6900    0.0000 H       1  UNL1        0.0569
     20 H           3.4220   -2.4631    0.0000 H       1  UNL1        0.0660
     21 H           3.1951   -3.3100    0.0000 H       1  UNL1        0.0660
     22 H           4.0420   -3.5369    0.0000 H       1  UNL1        0.0660
     23 H           2.3100   -0.4631    0.0000 H       1  UNL1        0.0660
     24 H           1.4631   -0.6900    0.0000 H       1  UNL1        0.0660
     25 H           1.6900   -1.5369    0.0000 H       1  UNL1        0.0660
     26 H           7.5062   -1.5369    0.0000 H       1  UNL1        0.0660
     27 H           7.7331   -0.6900    0.0000 H       1  UNL1        0.0660
     28 H           6.8862   -0.4631    0.0000 H       1  UNL1        0.0660
     29 H           6.0841    3.0000    0.0000 H       1  UNL1        0.0272
     30 H           5.4641    3.6200    0.0000 H       1  UNL1        0.0272
     31 H           4.8441    3.0000    0.0000 H       1  UNL1        0.0272
@<TRIPOS>BOND
     1     1     5    1
     2     1    12    1
     3     2     6    1
     4     2    13    1
     5     3     7    1
     6     3    14    1
     7     4     8   ar
     8     4     9   ar
     9     4    10    1
    10     5     6   ar
    11     5     7   ar
    12     6     8   ar
    13     7     9   ar
    14     8    16    1
    15     9    17    1
    16    10    11    2
    17    10    18    1
    18    11    15    1
    19    11    19    1
    20    12    20    1
    21    12    21    1
    22    12    22    1
    23    13    23    1
    24    13    24    1
    25    13    25    1
    26    14    26    1
    27    14    27    1
    28    14    28    1
    29    15    29    1
    30    15    30    1
    31    15    31    1
