@<TRIPOS>MOLECULE
IMPHY002759
 101 106 0 0 0
SMALL
GASTEIGER

@<TRIPOS>ATOM
      1 O           8.9511   -1.9542    0.0000 O.3     1  UNL1       -0.4864
      2 O           9.7681    2.1630    0.0000 O.2     1  UNL1       -0.2735
      3 O          10.6248    0.0121    0.0000 O.2     1  UNL1       -0.2736
      4 O           6.5677    2.6341    0.0000 O.2     1  UNL1       -0.2741
      5 O          14.0014    0.9616    0.0000 O.2     1  UNL1       -0.2734
      6 O          12.3277   -3.9037    0.0000 O.3     1  UNL1       -0.4945
      7 N           9.5870    0.4405    0.0000 N.am    1  UNL1       -0.2849
      8 N          11.4616   -0.5047    0.0000 N.am    1  UNL1       -0.3020
      9 N           7.2722    1.0518    0.0000 N.am    1  UNL1       -0.3024
     10 N           5.4451    0.2383    0.0000 N.3     1  UNL1       -0.2974
     11 N          13.1353   -0.5047    0.0000 N.am    1  UNL1       -0.2904
     12 C           9.7879   -0.5047    0.0000 C.3     1  UNL1        0.1390
     13 C           8.9511   -0.9879    0.0000 C.3     1  UNL1        0.1285
     14 C           8.2330   -0.3413    0.0000 C.3     1  UNL1        0.0024
     15 C           8.6260    0.5415    0.0000 C.3     1  UNL1        0.0191
     16 C           9.1803    1.3540    0.0000 C.2     1  UNL1        0.2369
     17 C          10.6248   -0.9879    0.0000 C.2     1  UNL1        0.2378
     18 C           8.1858    1.4585    0.0000 C.3     1  UNL1        0.1036
     19 C           7.7790    2.3721    0.0000 C.3     1  UNL1       -0.0007
     20 C          11.4616    0.4616    0.0000 C.3     1  UNL1        0.1037
     21 C           9.7879   -2.4374    0.0000 C.ar    1  UNL1        0.1218
     22 C          10.9616    1.3276    0.0000 C.3     1  UNL1       -0.0006
     23 C           8.3668    3.1811    0.0000 C.ar    1  UNL1       -0.0451
     24 C           6.4632    1.6396    0.0000 C.2     1  UNL1        0.2312
     25 C           5.5496    1.2329    0.0000 C.3     1  UNL1        0.0908
     26 C          13.1353    0.4616    0.0000 C.2     1  UNL1        0.2374
     27 C          10.6248   -1.9542    0.0000 C.ar    1  UNL1       -0.0092
     28 C           9.7879   -3.4037    0.0000 C.ar    1  UNL1       -0.0164
     29 C           4.7406    1.8207    0.0000 C.3     1  UNL1       -0.0035
     30 C          11.4616   -2.4374    0.0000 C.ar    1  UNL1        0.0213
     31 C          11.4616    2.1936    0.0000 C.ar    1  UNL1       -0.0451
     32 C           7.9601    4.0946    0.0000 C.ar    1  UNL1       -0.0585
     33 C           9.3613    3.0766    0.0000 C.ar    1  UNL1       -0.0585
     34 C          10.6248   -3.8868    0.0000 C.ar    1  UNL1       -0.0159
     35 C          11.4616   -3.4037    0.0000 C.ar    1  UNL1        0.1275
     36 C          12.2985   -1.9542    0.0000 C.2     1  UNL1       -0.0371
     37 C           3.8271    1.4139    0.0000 C.ar    1  UNL1       -0.0454
     38 C          12.2985   -0.9879    0.0000 C.2     1  UNL1       -0.0030
     39 C           8.5478    4.9037    0.0000 C.ar    1  UNL1       -0.0615
     40 C           9.9491    3.8856    0.0000 C.ar    1  UNL1       -0.0615
     41 C           4.5316   -0.1684    0.0000 C.3     1  UNL1       -0.0123
     42 C           6.2542   -0.3495    0.0000 C.3     1  UNL1       -0.0123
     43 C          12.4616    2.1936    0.0000 C.ar    1  UNL1       -0.0585
     44 C          10.9616    3.0597    0.0000 C.ar    1  UNL1       -0.0585
     45 C           9.5424    4.7991    0.0000 C.ar    1  UNL1       -0.0617
     46 C           3.0181    2.0017    0.0000 C.ar    1  UNL1       -0.0585
     47 C           3.7226    0.4194    0.0000 C.ar    1  UNL1       -0.0585
     48 C          12.9616    3.0597    0.0000 C.ar    1  UNL1       -0.0615
     49 C          11.4616    3.9257    0.0000 C.ar    1  UNL1       -0.0615
     50 C          12.4616    3.9257    0.0000 C.ar    1  UNL1       -0.0617
     51 C           2.1045    1.5950    0.0000 C.ar    1  UNL1       -0.0615
     52 C           2.8090    0.0126    0.0000 C.ar    1  UNL1       -0.0615
     53 C          12.3277   -4.9037    0.0000 C.3     1  UNL1        0.0788
     54 C           2.0000    0.6004    0.0000 C.ar    1  UNL1       -0.0617
     55 H          10.2895   -0.1403    0.0000 H       1  UNL1        0.0634
     56 H           8.3847   -1.2401    0.0000 H       1  UNL1        0.0757
     57 H           7.6960   -0.0313    0.0000 H       1  UNL1        0.0317
     58 H           7.8685   -0.8429    0.0000 H       1  UNL1        0.0317
     59 H           8.7549    1.1479    0.0000 H       1  UNL1        0.0466
     60 H           8.0364    0.7331    0.0000 H       1  UNL1        0.0466
     61 H           8.2828    0.8462    0.0000 H       1  UNL1        0.0598
     62 H          11.9980   -0.1937    0.0000 H       1  UNL1        0.1495
     63 H           7.3483    2.8181    0.0000 H       1  UNL1        0.0336
     64 H           7.2650    2.0254    0.0000 H       1  UNL1        0.0336
     65 H          10.8628    0.3011    0.0000 H       1  UNL1        0.0598
     66 H           7.2075    0.4351    0.0000 H       1  UNL1        0.1495
     67 H          10.4867    1.7261    0.0000 H       1  UNL1        0.0336
     68 H          10.4867    0.9291    0.0000 H       1  UNL1        0.0336
     69 H           4.9832    0.9807    0.0000 H       1  UNL1        0.0562
     70 H          10.6248   -1.3342    0.0000 H       1  UNL1        0.0661
     71 H           9.2510   -3.7137    0.0000 H       1  UNL1        0.0655
     72 H           5.1866    2.2514    0.0000 H       1  UNL1        0.0333
     73 H           4.3939    2.3347    0.0000 H       1  UNL1        0.0333
     74 H           7.3435    4.1594    0.0000 H       1  UNL1        0.0620
     75 H           9.6135    2.5102    0.0000 H       1  UNL1        0.0620
     76 H          10.6248   -4.5068    0.0000 H       1  UNL1        0.0655
     77 H          13.6723   -0.8147    0.0000 H       1  UNL1        0.1543
     78 H          12.8354   -2.2642    0.0000 H       1  UNL1        0.0637
     79 H          12.8354   -1.2979    0.0000 H       1  UNL1        0.0782
     80 H           8.2957    5.4701    0.0000 H       1  UNL1        0.0618
     81 H          10.5657    3.8208    0.0000 H       1  UNL1        0.0618
     82 H           4.2794    0.3980    0.0000 H       1  UNL1        0.0391
     83 H           3.9652   -0.4206    0.0000 H       1  UNL1        0.0391
     84 H           4.7838   -0.7348    0.0000 H       1  UNL1        0.0391
     85 H           5.8898   -0.8511    0.0000 H       1  UNL1        0.0391
     86 H           6.7558   -0.7139    0.0000 H       1  UNL1        0.0391
     87 H           6.6186    0.1521    0.0000 H       1  UNL1        0.0391
     88 H          12.7716    1.6567    0.0000 H       1  UNL1        0.0620
     89 H          10.3416    3.0597    0.0000 H       1  UNL1        0.0620
     90 H           9.9068    5.3007    0.0000 H       1  UNL1        0.0618
     91 H           3.0829    2.6183    0.0000 H       1  UNL1        0.0620
     92 H           4.2242    0.0550    0.0000 H       1  UNL1        0.0620
     93 H          13.5816    3.0597    0.0000 H       1  UNL1        0.0618
     94 H          11.1516    4.4626    0.0000 H       1  UNL1        0.0618
     95 H          12.7716    4.4626    0.0000 H       1  UNL1        0.0618
     96 H           1.6029    1.9594    0.0000 H       1  UNL1        0.0618
     97 H           2.7442   -0.6040    0.0000 H       1  UNL1        0.0618
     98 H          11.7077   -4.9037    0.0000 H       1  UNL1        0.0660
     99 H          12.3277   -5.5237    0.0000 H       1  UNL1        0.0660
    100 H          12.9477   -4.9037    0.0000 H       1  UNL1        0.0660
    101 H           1.4336    0.3483    0.0000 H       1  UNL1        0.0618
@<TRIPOS>BOND
     1     1    13    1
     2     1    21    1
     3     2    16    2
     4     3    17    2
     5     4    24    2
     6     5    26    2
     7     6    35    1
     8     6    53    1
     9     7    12    1
    10     7    15    1
    11     7    16   am
    12     8    17   am
    13     8    20    1
    14     8    62    1
    15     9    18    1
    16     9    24   am
    17     9    66    1
    18    10    25    1
    19    10    41    1
    20    10    42    1
    21    11    26   am
    22    11    38    1
    23    11    77    1
    24    12    13    1
    25    12    17    1
    26    12    55    1
    27    13    14    1
    28    13    56    1
    29    14    15    1
    30    14    57    1
    31    14    58    1
    32    15    59    1
    33    15    60    1
    34    16    18    1
    35    18    19    1
    36    18    61    1
    37    19    23    1
    38    19    63    1
    39    19    64    1
    40    20    22    1
    41    20    26    1
    42    20    65    1
    43    21    27   ar
    44    21    28   ar
    45    22    31    1
    46    22    67    1
    47    22    68    1
    48    23    32   ar
    49    23    33   ar
    50    24    25    1
    51    25    29    1
    52    25    69    1
    53    27    30   ar
    54    27    70    1
    55    28    34   ar
    56    28    71    1
    57    29    37    1
    58    29    72    1
    59    29    73    1
    60    30    35   ar
    61    30    36    1
    62    31    43   ar
    63    31    44   ar
    64    32    39   ar
    65    32    74    1
    66    33    40   ar
    67    33    75    1
    68    34    35   ar
    69    34    76    1
    70    36    38    2
    71    36    78    1
    72    37    46   ar
    73    37    47   ar
    74    38    79    1
    75    39    45   ar
    76    39    80    1
    77    40    45   ar
    78    40    81    1
    79    41    82    1
    80    41    83    1
    81    41    84    1
    82    42    85    1
    83    42    86    1
    84    42    87    1
    85    43    48   ar
    86    43    88    1
    87    44    49   ar
    88    44    89    1
    89    45    90    1
    90    46    51   ar
    91    46    91    1
    92    47    52   ar
    93    47    92    1
    94    48    50   ar
    95    48    93    1
    96    49    50   ar
    97    49    94    1
    98    50    95    1
    99    51    54   ar
   100    51    96    1
   101    52    54   ar
   102    52    97    1
   103    53    98    1
   104    53    99    1
   105    53   100    1
   106    54   101    1
