@<TRIPOS>MOLECULE
IMPHY003003
 179 188 0 0 0
SMALL
GASTEIGER

@<TRIPOS>ATOM
      1 O          14.3523    4.9330    0.0000 O.3     1  UNL1       -0.3450
      2 O          12.8233    6.1649    0.0000 O.3     1  UNL1       -0.3642
      3 O          12.9292   -3.3111    0.0000 O.3     1  UNL1       -0.3429
      4 O          11.1219   -2.2583    0.0000 O.3     1  UNL1       -0.3892
      5 O          11.1972   -3.3111    0.0000 O.3     1  UNL1       -0.3405
      6 O          16.9869    8.0323    0.0000 O.3     1  UNL1       -0.3484
      7 O          12.9292   -5.3111    0.0000 O.3     1  UNL1       -0.3841
      8 O          11.1972   -6.3111    0.0000 O.3     1  UNL1       -0.3864
      9 O           9.4651   -5.3111    0.0000 O.3     1  UNL1       -0.3401
     10 O           9.4651   -2.3111    0.0000 O.3     1  UNL1       -0.3924
     11 O          18.4894    7.1708    0.0000 O.3     1  UNL1       -0.3405
     12 O           8.5991   -3.8111    0.0000 O.3     1  UNL1       -0.3405
     13 O          17.9817    9.7673    0.0000 O.3     1  UNL1       -0.3841
     14 O           7.7331   -6.3111    0.0000 O.3     1  UNL1       -0.3377
     15 O          19.9817    9.7733    0.0000 O.3     1  UNL1       -0.3864
     16 O          20.9868    8.0442    0.0000 O.3     1  UNL1       -0.3865
     17 O           6.0010   -5.3111    0.0000 O.3     1  UNL1       -0.3401
     18 O           6.0010   -3.3111    0.0000 O.3     1  UNL1       -0.3865
     19 O          20.9920    6.3122    0.0000 O.3     1  UNL1       -0.3924
     20 O           6.4062   -7.4244    0.0000 O.3     1  UNL1       -0.3405
     21 O           6.8671   -1.8111    0.0000 O.3     1  UNL1       -0.3924
     22 O           5.1350   -3.8111    0.0000 O.3     1  UNL1       -0.3461
     23 O           9.0187   -7.8431    0.0000 O.3     1  UNL1       -0.3841
     24 O           8.3347   -9.7226    0.0000 O.3     1  UNL1       -0.3864
     25 O           4.2690   -6.3111    0.0000 O.3     1  UNL1       -0.3841
     26 O           6.3650  -10.0699    0.0000 O.3     1  UNL1       -0.3865
     27 O           2.5369   -5.3111    0.0000 O.3     1  UNL1       -0.3864
     28 O           2.5369   -3.3111    0.0000 O.3     1  UNL1       -0.3869
     29 O           4.7374   -9.4774    0.0000 O.3     1  UNL1       -0.3924
     30 C          12.9585    2.8858    0.0000 C.3     1  UNL1       -0.0233
     31 C          13.8264    2.3891    0.0000 C.3     1  UNL1       -0.0298
     32 C          13.8303    1.3891    0.0000 C.3     1  UNL1       -0.0343
     33 C          13.1640    3.8584    0.0000 C.3     1  UNL1       -0.0015
     34 C          12.9662    0.8858    0.0000 C.3     1  UNL1       -0.0322
     35 C          12.9542   -0.1558    0.0000 C.3     1  UNL1       -0.0237
     36 C          14.1523    3.9652    0.0000 C.3     1  UNL1        0.0660
     37 C          14.5609    3.0590    0.0000 C.3     1  UNL1       -0.0226
     38 C          12.0944    2.3824    0.0000 C.3     1  UNL1       -0.0467
     39 C          12.0983    1.3824    0.0000 C.3     1  UNL1       -0.0489
     40 C          13.8542   -0.6801    0.0000 C.3     1  UNL1       -0.0329
     41 C          12.7617    4.7610    0.0000 C.3     1  UNL1        0.0158
     42 C          14.7422    0.8858    0.0000 C.3     1  UNL1       -0.0494
     43 C          14.7543   -0.1558    0.0000 C.3     1  UNL1       -0.0494
     44 C          12.0906    3.3824    0.0000 C.3     1  UNL1       -0.0590
     45 C          13.4946    5.4238    0.0000 C.3     1  UNL1        0.1704
     46 C          12.0043   -0.6801    0.0000 C.3     1  UNL1       -0.0185
     47 C          13.8668   -1.7650    0.0000 C.3     1  UNL1       -0.0207
     48 C          12.0901    0.3476    0.0000 C.3     1  UNL1       -0.0590
     49 C          11.9917   -1.7650    0.0000 C.3     1  UNL1        0.0819
     50 C          12.9292   -2.3111    0.0000 C.3     1  UNL1        0.0879
     51 C          11.7833    4.9677    0.0000 C.3     1  UNL1       -0.0572
     52 C          13.9920    6.2913    0.0000 C.3     1  UNL1        0.0018
     53 C          14.9920    6.2943    0.0000 C.3     1  UNL1       -0.0435
     54 C          15.4894    7.1618    0.0000 C.3     1  UNL1       -0.0201
     55 C          12.0632   -3.8111    0.0000 C.3     1  UNL1        0.1883
     56 C          12.0632   -4.8111    0.0000 C.3     1  UNL1        0.1341
     57 C          16.4894    7.1648    0.0000 C.3     1  UNL1        0.0533
     58 C          14.9869    8.0263    0.0000 C.3     1  UNL1       -0.0603
     59 C          11.1972   -5.3111    0.0000 C.3     1  UNL1        0.1144
     60 C          10.3312   -3.8111    0.0000 C.3     1  UNL1        0.1134
     61 C          10.3312   -4.8111    0.0000 C.3     1  UNL1        0.1184
     62 C           9.4651   -3.3111    0.0000 C.3     1  UNL1        0.0730
     63 C          17.9868    8.0353    0.0000 C.3     1  UNL1        0.1879
     64 C           8.5991   -4.8111    0.0000 C.3     1  UNL1        0.1888
     65 C          18.4843    8.9028    0.0000 C.3     1  UNL1        0.1341
     66 C          19.4843    8.9058    0.0000 C.3     1  UNL1        0.1141
     67 C           7.7331   -5.3111    0.0000 C.3     1  UNL1        0.1410
     68 C          19.4894    7.1738    0.0000 C.3     1  UNL1        0.1130
     69 C          19.9868    8.0413    0.0000 C.3     1  UNL1        0.1119
     70 C           6.8671   -4.8111    0.0000 C.3     1  UNL1        0.1209
     71 C           7.7331   -3.3111    0.0000 C.3     1  UNL1        0.1130
     72 C           6.8671   -3.8111    0.0000 C.3     1  UNL1        0.1123
     73 C          19.9920    6.3092    0.0000 C.3     1  UNL1        0.0730
     74 C           7.7331   -2.3111    0.0000 C.3     1  UNL1        0.0730
     75 C           7.3910   -7.2508    0.0000 C.3     1  UNL1        0.1885
     76 C           5.1350   -4.8111    0.0000 C.3     1  UNL1        0.1880
     77 C           8.0339   -8.0168    0.0000 C.3     1  UNL1        0.1341
     78 C           7.6918   -8.9565    0.0000 C.3     1  UNL1        0.1141
     79 C           4.2690   -5.3111    0.0000 C.3     1  UNL1        0.1341
     80 C           6.0642   -8.3641    0.0000 C.3     1  UNL1        0.1130
     81 C           6.7070   -9.1302    0.0000 C.3     1  UNL1        0.1119
     82 C           3.4030   -4.8111    0.0000 C.3     1  UNL1        0.1137
     83 C           4.2690   -3.3111    0.0000 C.3     1  UNL1        0.0792
     84 C           3.4030   -3.8111    0.0000 C.3     1  UNL1        0.1069
     85 C           5.0794   -8.5377    0.0000 C.3     1  UNL1        0.0730
     86 H          14.6047    2.0474    0.0000 H       1  UNL1        0.0310
     87 H          14.5615    1.8226    0.0000 H       1  UNL1        0.0306
     88 H          12.3187    3.7688    0.0000 H       1  UNL1        0.0335
     89 H          13.7007    0.4579    0.0000 H       1  UNL1        0.0309
     90 H          14.9972    4.0584    0.0000 H       1  UNL1        0.0600
     91 H          14.9283    2.5596    0.0000 H       1  UNL1        0.0293
     92 H          15.0962    3.3719    0.0000 H       1  UNL1        0.0293
     93 H          11.8801    2.9642    0.0000 H       1  UNL1        0.0271
     94 H          11.4842    2.2724    0.0000 H       1  UNL1        0.0271
     95 H          11.4873    1.4877    0.0000 H       1  UNL1        0.0268
     96 H          11.8885    0.7990    0.0000 H       1  UNL1        0.0268
     97 H          14.5936   -1.0994    0.0000 H       1  UNL1        0.0307
     98 H          12.3719    4.2788    0.0000 H       1  UNL1        0.0354
     99 H          15.3543    0.7868    0.0000 H       1  UNL1        0.0268
    100 H          14.9445    1.4719    0.0000 H       1  UNL1        0.0268
    101 H          14.9701   -0.7370    0.0000 H       1  UNL1        0.0268
    102 H          15.3639   -0.0426    0.0000 H       1  UNL1        0.0268
    103 H          12.3985    3.9206    0.0000 H       1  UNL1        0.0235
    104 H          11.5524    3.6904    0.0000 H       1  UNL1        0.0235
    105 H          11.7826    2.8443    0.0000 H       1  UNL1        0.0235
    106 H          11.8020   -0.0940    0.0000 H       1  UNL1        0.0296
    107 H          11.3922   -0.7791    0.0000 H       1  UNL1        0.0296
    108 H          14.0826   -2.3462    0.0000 H       1  UNL1        0.0294
    109 H          14.4764   -1.6518    0.0000 H       1  UNL1        0.0294
    110 H          12.4021    0.8833    0.0000 H       1  UNL1        0.0235
    111 H          11.5543    0.6596    0.0000 H       1  UNL1        0.0235
    112 H          11.7780   -0.1882    0.0000 H       1  UNL1        0.0235
    113 H          11.4578   -1.4498    0.0000 H       1  UNL1        0.0619
    114 H          12.1923   -2.7347    0.0000 H       1  UNL1        0.0623
    115 H          11.9114    5.5743    0.0000 H       1  UNL1        0.0234
    116 H          11.1766    5.0958    0.0000 H       1  UNL1        0.0234
    117 H          11.6551    4.3610    0.0000 H       1  UNL1        0.0234
    118 H          14.0979    6.9022    0.0000 H       1  UNL1        0.0317
    119 H          13.4088    6.5016    0.0000 H       1  UNL1        0.0317
    120 H          13.0131    6.7551    0.0000 H       1  UNL1        0.2128
    121 H          14.8862    5.6834    0.0000 H       1  UNL1        0.0270
    122 H          15.5753    6.0840    0.0000 H       1  UNL1        0.0270
    123 H          10.5873   -1.9442    0.0000 H       1  UNL1        0.2099
    124 H          14.6395    7.1592    0.0000 H       1  UNL1        0.0320
    125 H          12.7993   -4.2361    0.0000 H       1  UNL1        0.0938
    126 H          12.0632   -5.6611    0.0000 H       1  UNL1        0.0671
    127 H          16.3836    6.5539    0.0000 H       1  UNL1        0.0563
    128 H          17.0727    6.9545    0.0000 H       1  UNL1        0.0563
    129 H          15.5229    8.3379    0.0000 H       1  UNL1        0.0233
    130 H          14.6753    8.5623    0.0000 H       1  UNL1        0.0233
    131 H          14.4509    7.7147    0.0000 H       1  UNL1        0.0233
    132 H          10.4611   -5.7361    0.0000 H       1  UNL1        0.0648
    133 H          10.3312   -2.9611    0.0000 H       1  UNL1        0.0647
    134 H           9.5950   -4.3861    0.0000 H       1  UNL1        0.0651
    135 H          13.4662   -5.0011    0.0000 H       1  UNL1        0.2101
    136 H           8.8546   -3.2034    0.0000 H       1  UNL1        0.0584
    137 H           9.2531   -3.8937    0.0000 H       1  UNL1        0.0584
    138 H          11.7341   -6.6211    0.0000 H       1  UNL1        0.2100
    139 H          17.5596    8.7701    0.0000 H       1  UNL1        0.0937
    140 H           8.5991   -5.6611    0.0000 H       1  UNL1        0.0938
    141 H          18.9071    9.6402    0.0000 H       1  UNL1        0.0671
    142 H           8.9282   -2.0011    0.0000 H       1  UNL1        0.2095
    143 H          20.3342    8.9083    0.0000 H       1  UNL1        0.0648
    144 H           6.9970   -5.7361    0.0000 H       1  UNL1        0.0675
    145 H          19.0666    6.4364    0.0000 H       1  UNL1        0.0647
    146 H          20.4140    7.3064    0.0000 H       1  UNL1        0.0647
    147 H           6.1309   -4.3861    0.0000 H       1  UNL1        0.0651
    148 H          18.2901   10.3052    0.0000 H       1  UNL1        0.2101
    149 H           8.4692   -2.8861    0.0000 H       1  UNL1        0.0647
    150 H           6.8671   -2.9611    0.0000 H       1  UNL1        0.0647
    151 H          19.4100    6.0954    0.0000 H       1  UNL1        0.0584
    152 H          20.1015    5.6990    0.0000 H       1  UNL1        0.0584
    153 H          20.6017    9.7752    0.0000 H       1  UNL1        0.2100
    154 H          21.2952    8.5821    0.0000 H       1  UNL1        0.2100
    155 H           8.3437   -2.4188    0.0000 H       1  UNL1        0.0584
    156 H           7.9451   -1.7285    0.0000 H       1  UNL1        0.0584
    157 H           6.8447   -6.5996    0.0000 H       1  UNL1        0.0938
    158 H           6.0010   -2.6911    0.0000 H       1  UNL1        0.2100
    159 H          21.3036    5.7762    0.0000 H       1  UNL1        0.2095
    160 H           5.1350   -5.6611    0.0000 H       1  UNL1        0.0937
    161 H           8.5803   -8.6680    0.0000 H       1  UNL1        0.0671
    162 H           6.8671   -1.1911    0.0000 H       1  UNL1        0.2095
    163 H           7.4011   -9.7553    0.0000 H       1  UNL1        0.0648
    164 H           3.5329   -5.7361    0.0000 H       1  UNL1        0.0671
    165 H           5.5178   -7.7130    0.0000 H       1  UNL1        0.0647
    166 H           5.8699   -9.2778    0.0000 H       1  UNL1        0.0647
    167 H           2.6668   -4.3861    0.0000 H       1  UNL1        0.0647
    168 H           9.2307   -7.2606    0.0000 H       1  UNL1        0.2101
    169 H           4.6675   -2.8362    0.0000 H       1  UNL1        0.0587
    170 H           3.8705   -2.8362    0.0000 H       1  UNL1        0.0587
    171 H           3.4030   -2.9611    0.0000 H       1  UNL1        0.0643
    172 H           5.0794   -7.9177    0.0000 H       1  UNL1        0.0584
    173 H           4.4688   -8.4300    0.0000 H       1  UNL1        0.0584
    174 H           8.1226  -10.3052    0.0000 H       1  UNL1        0.2100
    175 H           3.7320   -6.6211    0.0000 H       1  UNL1        0.2101
    176 H           5.7544  -10.1775    0.0000 H       1  UNL1        0.2100
    177 H           2.0000   -5.0011    0.0000 H       1  UNL1        0.2100
    178 H           2.5369   -2.6911    0.0000 H       1  UNL1        0.2100
    179 H           4.1268   -9.5851    0.0000 H       1  UNL1        0.2095
@<TRIPOS>BOND
     1     1    36    1
     2     1    45    1
     3    45     2    1
     4     2   120    1
     5     3    50    1
     6     3    55    1
     7    49     4    1
     8     4   123    1
     9     5    55    1
    10     5    60    1
    11     6    57    1
    12     6    63    1
    13     7    56    1
    14     7   135    1
    15     8    59    1
    16     8   138    1
    17     9    61    1
    18     9    64    1
    19    10    62    1
    20    10   142    1
    21    11    63    1
    22    11    68    1
    23    12    64    1
    24    12    71    1
    25    13    65    1
    26    13   148    1
    27    14    67    1
    28    14    75    1
    29    15    66    1
    30    15   153    1
    31    16    69    1
    32    16   154    1
    33    17    70    1
    34    17    76    1
    35    18    72    1
    36    18   158    1
    37    19    73    1
    38    19   159    1
    39    20    75    1
    40    20    80    1
    41    21    74    1
    42    21   162    1
    43    22    76    1
    44    22    83    1
    45    23    77    1
    46    23   168    1
    47    24    78    1
    48    24   174    1
    49    25    79    1
    50    25   175    1
    51    26    81    1
    52    26   176    1
    53    27    82    1
    54    27   177    1
    55    28    84    1
    56    28   178    1
    57    29    85    1
    58    29   179    1
    59    30    31    1
    60    30    33    1
    61    30    38    1
    62    30    44    1
    63    31    32    1
    64    31    37    1
    65    31    86    1
    66    32    34    1
    67    32    42    1
    68    32    87    1
    69    33    36    1
    70    33    41    1
    71    33    88    1
    72    34    35    1
    73    34    39    1
    74    34    89    1
    75    35    40    1
    76    35    46    1
    77    35    48    1
    78    36    37    1
    79    36    90    1
    80    37    91    1
    81    37    92    1
    82    38    39    1
    83    38    93    1
    84    38    94    1
    85    39    95    1
    86    39    96    1
    87    40    43    1
    88    40    47    1
    89    40    97    1
    90    41    45    1
    91    41    51    1
    92    41    98    1
    93    42    43    1
    94    42    99    1
    95    42   100    1
    96    43   101    1
    97    43   102    1
    98    44   103    1
    99    44   104    1
   100    44   105    1
   101    45    52    1
   102    46    49    1
   103    46   106    1
   104    46   107    1
   105    47    50    1
   106    47   108    1
   107    47   109    1
   108    48   110    1
   109    48   111    1
   110    48   112    1
   111    49    50    1
   112    49   113    1
   113    50   114    1
   114    51   115    1
   115    51   116    1
   116    51   117    1
   117    52    53    1
   118    52   118    1
   119    52   119    1
   120    53    54    1
   121    53   121    1
   122    53   122    1
   123    54    57    1
   124    54    58    1
   125    54   124    1
   126    55    56    1
   127    55   125    1
   128    56    59    1
   129    56   126    1
   130    57   127    1
   131    57   128    1
   132    58   129    1
   133    58   130    1
   134    58   131    1
   135    59    61    1
   136    59   132    1
   137    60    61    1
   138    60    62    1
   139    60   133    1
   140    61   134    1
   141    62   136    1
   142    62   137    1
   143    63    65    1
   144    63   139    1
   145    64    67    1
   146    64   140    1
   147    65    66    1
   148    65   141    1
   149    66    69    1
   150    66   143    1
   151    67    70    1
   152    67   144    1
   153    68    69    1
   154    68    73    1
   155    68   145    1
   156    69   146    1
   157    70    72    1
   158    70   147    1
   159    71    72    1
   160    71    74    1
   161    71   149    1
   162    72   150    1
   163    73   151    1
   164    73   152    1
   165    74   155    1
   166    74   156    1
   167    75    77    1
   168    75   157    1
   169    76    79    1
   170    76   160    1
   171    77    78    1
   172    77   161    1
   173    78    81    1
   174    78   163    1
   175    79    82    1
   176    79   164    1
   177    80    81    1
   178    80    85    1
   179    80   165    1
   180    81   166    1
   181    82    84    1
   182    82   167    1
   183    83    84    1
   184    83   169    1
   185    83   170    1
   186    84   171    1
   187    85   172    1
   188    85   173    1
