@<TRIPOS>MOLECULE
IMPHY013236
 163 171 0 0 0
SMALL
GASTEIGER

@<TRIPOS>ATOM
      1 O          10.4601    6.2313    0.0000 O.3     1  UNL1       -0.3449
      2 O           7.5844   -0.8144    0.0000 O.3     1  UNL1       -0.3906
      3 O           8.5991   -3.0272    0.0000 O.3     1  UNL1       -0.4306
      4 O           7.6143   -2.2009    0.0000 O.2     1  UNL1       -0.2500
      5 O          12.1920    6.2113    0.0000 O.3     1  UNL1       -0.3315
      6 O           6.8671   -3.0272    0.0000 O.3     1  UNL1       -0.3360
      7 O          10.4832    8.2312    0.0000 O.3     1  UNL1       -0.3841
      8 O          12.2267    9.2111    0.0000 O.3     1  UNL1       -0.3864
      9 O           8.5991   -5.0273    0.0000 O.3     1  UNL1       -0.4523
     10 O          13.9471    8.1911    0.0000 O.3     1  UNL1       -0.3860
     11 O           6.8671   -6.0273    0.0000 O.3     1  UNL1       -0.3389
     12 O           5.1350   -5.0273    0.0000 O.3     1  UNL1       -0.3868
     13 O          14.7957    6.6812    0.0000 O.3     1  UNL1       -0.4788
     14 O          13.9124    5.1913    0.0000 O.2     1  UNL1       -0.2480
     15 O           5.1350   -6.0273    0.0000 O.3     1  UNL1       -0.3405
     16 O           9.4651   -3.5272    0.0000 O.2     1  UNL1       -0.2508
     17 O           6.8671   -8.0272    0.0000 O.3     1  UNL1       -0.3841
     18 O           5.1350   -9.0272    0.0000 O.3     1  UNL1       -0.3864
     19 O           3.4030   -8.0272    0.0000 O.3     1  UNL1       -0.3865
     20 O           2.5369   -6.5273    0.0000 O.3     1  UNL1       -0.3924
     21 O          12.0632   -9.0272    0.0000 O.3     1  UNL1       -0.4915
     22 O          13.7953   -8.0272    0.0000 O.3     1  UNL1       -0.5033
     23 C           9.5048    1.5418    0.0000 C.3     1  UNL1       -0.0193
     24 C          10.3746    2.0351    0.0000 C.3     1  UNL1       -0.0257
     25 C          10.3987    3.0765    0.0000 C.3     1  UNL1       -0.0250
     26 C           9.4970    0.5418    0.0000 C.3     1  UNL1       -0.0028
     27 C           9.5048    3.6111    0.0000 C.3     1  UNL1       -0.0278
     28 C           8.5987    2.0556    0.0000 C.3     1  UNL1       -0.0463
     29 C           8.5987    3.0973    0.0000 C.3     1  UNL1       -0.0486
     30 C           9.5048    4.6961    0.0000 C.3     1  UNL1       -0.0052
     31 C          10.3592    0.0352    0.0000 C.2     1  UNL1       -0.0627
     32 C          10.3672   -1.0064    0.0000 C.3     1  UNL1       -0.0007
     33 C          11.2368    1.5284    0.0000 C.3     1  UNL1       -0.0306
     34 C          11.3546    3.5897    0.0000 C.3     1  UNL1       -0.0447
     35 C           8.5832    0.0420    0.0000 C.3     1  UNL1       -0.0162
     36 C           9.4651   -1.5272    0.0000 C.3     1  UNL1        0.1000
     37 C           8.5671   -0.9995    0.0000 C.3     1  UNL1        0.0723
     38 C           8.5186    1.3758    0.0000 C.3     1  UNL1       -0.0585
     39 C          10.4485    5.2314    0.0000 C.3     1  UNL1        0.0672
     40 C          11.2290    0.5285    0.0000 C.2     1  UNL1       -0.0836
     41 C          11.2569    2.5632    0.0000 C.3     1  UNL1       -0.0590
     42 C          11.3797    4.6744    0.0000 C.3     1  UNL1       -0.0255
     43 C           8.5136    0.7231    0.0000 C.3     1  UNL1       -0.0552
     44 C          11.3151   -1.5344    0.0000 C.3     1  UNL1       -0.0402
     45 C           9.4484   -2.6121    0.0000 C.3     1  UNL1       -0.0338
     46 C          11.3235   -2.6193    0.0000 C.3     1  UNL1       -0.0343
     47 C           9.0081    5.5641    0.0000 C.3     1  UNL1       -0.0572
     48 C           8.5048    4.7000    0.0000 C.3     1  UNL1       -0.0572
     49 C          10.3838   -3.1618    0.0000 C.3     1  UNL1       -0.0467
     50 C           8.5991   -2.0272    0.0000 C.2     1  UNL1        0.3187
     51 C          12.3235   -2.6155    0.0000 C.3     1  UNL1       -0.0598
     52 C          11.8268   -3.4834    0.0000 C.3     1  UNL1       -0.0598
     53 C          11.3319    6.7212    0.0000 C.3     1  UNL1        0.1888
     54 C          11.3434    7.7212    0.0000 C.3     1  UNL1        0.1341
     55 C           7.7331   -3.5272    0.0000 C.3     1  UNL1        0.2447
     56 C          12.2152    8.2111    0.0000 C.3     1  UNL1        0.1145
     57 C          13.0638    6.7012    0.0000 C.3     1  UNL1        0.1859
     58 C           7.7331   -4.5273    0.0000 C.3     1  UNL1        0.1933
     59 C          13.0753    7.7012    0.0000 C.3     1  UNL1        0.1201
     60 C           6.8671   -5.0273    0.0000 C.3     1  UNL1        0.1324
     61 C           6.0010   -3.5272    0.0000 C.3     1  UNL1        0.0803
     62 C           6.0010   -4.5273    0.0000 C.3     1  UNL1        0.1084
     63 C          13.9240    6.1912    0.0000 C.2     1  UNL1        0.3367
     64 C           9.4651   -4.5273    0.0000 C.2     1  UNL1        0.3079
     65 C           6.0010   -6.5273    0.0000 C.3     1  UNL1        0.1885
     66 C           6.0010   -7.5272    0.0000 C.3     1  UNL1        0.1341
     67 C          10.3312   -5.0273    0.0000 C.3     1  UNL1        0.0489
     68 C           5.1350   -8.0272    0.0000 C.3     1  UNL1        0.1141
     69 C           4.2690   -6.5273    0.0000 C.3     1  UNL1        0.1130
     70 C           4.2690   -7.5272    0.0000 C.3     1  UNL1        0.1119
     71 C          10.3312   -6.0273    0.0000 C.3     1  UNL1       -0.0175
     72 C           3.4030   -6.0273    0.0000 C.3     1  UNL1        0.0730
     73 C          11.1972   -6.5273    0.0000 C.ar    1  UNL1       -0.0432
     74 C          11.1972   -7.5272    0.0000 C.ar    1  UNL1       -0.0131
     75 C          12.0632   -6.0273    0.0000 C.ar    1  UNL1       -0.0549
     76 C          12.0632   -8.0272    0.0000 C.ar    1  UNL1        0.1615
     77 C          12.9292   -6.5273    0.0000 C.ar    1  UNL1       -0.0163
     78 C          12.9292   -7.5272    0.0000 C.ar    1  UNL1        0.1585
     79 C          12.9292   -9.5272    0.0000 C.3     1  UNL1        0.0790
     80 H          10.9163    2.3368    0.0000 H       1  UNL1        0.0315
     81 H           8.9690    3.9232    0.0000 H       1  UNL1        0.0312
     82 H           7.9878    2.1617    0.0000 H       1  UNL1        0.0271
     83 H           8.3896    1.4720    0.0000 H       1  UNL1        0.0271
     84 H           8.3896    3.6810    0.0000 H       1  UNL1        0.0268
     85 H           7.9878    2.9912    0.0000 H       1  UNL1        0.0268
     86 H          10.9005   -0.6902    0.0000 H       1  UNL1        0.0357
     87 H          11.8465    1.4161    0.0000 H       1  UNL1        0.0310
     88 H          11.4533    2.1094    0.0000 H       1  UNL1        0.0310
     89 H          11.5501    3.0014    0.0000 H       1  UNL1        0.0271
     90 H          11.9678    3.6817    0.0000 H       1  UNL1        0.0271
     91 H           8.3831    0.6289    0.0000 H       1  UNL1        0.0299
     92 H           7.9707   -0.0546    0.0000 H       1  UNL1        0.0299
     93 H           8.3494   -1.5800    0.0000 H       1  UNL1        0.0605
     94 H           8.4157    1.9872    0.0000 H       1  UNL1        0.0235
     95 H           7.9072    1.2729    0.0000 H       1  UNL1        0.0235
     96 H           8.6216    0.7644    0.0000 H       1  UNL1        0.0235
     97 H          10.9896    5.5341    0.0000 H       1  UNL1        0.0602
     98 H          11.7636    0.2143    0.0000 H       1  UNL1        0.0572
     99 H          10.9387    2.0311    0.0000 H       1  UNL1        0.0235
    100 H          11.7890    2.2449    0.0000 H       1  UNL1        0.0235
    101 H          11.5751    3.0953    0.0000 H       1  UNL1        0.0235
    102 H          11.9879    4.5542    0.0000 H       1  UNL1        0.0290
    103 H          11.6022    5.2531    0.0000 H       1  UNL1        0.0290
    104 H           8.6260    1.3328    0.0000 H       1  UNL1        0.0238
    105 H           7.9039    0.8354    0.0000 H       1  UNL1        0.0238
    106 H           8.4012    0.1133    0.0000 H       1  UNL1        0.0238
    107 H          11.9268   -1.6358    0.0000 H       1  UNL1        0.0276
    108 H          11.5197   -0.9491    0.0000 H       1  UNL1        0.0276
    109 H           8.8393   -2.4966    0.0000 H       1  UNL1        0.0277
    110 H           9.2304   -3.1925    0.0000 H       1  UNL1        0.0277
    111 H           9.5462    5.8720    0.0000 H       1  UNL1        0.0236
    112 H           8.7002    6.1022    0.0000 H       1  UNL1        0.0236
    113 H           8.4700    5.2561    0.0000 H       1  UNL1        0.0236
    114 H           8.5072    5.3200    0.0000 H       1  UNL1        0.0236
    115 H           7.8848    4.7024    0.0000 H       1  UNL1        0.0236
    116 H           8.5024    4.0800    0.0000 H       1  UNL1        0.0236
    117 H           9.9829   -3.6347    0.0000 H       1  UNL1        0.0271
    118 H          10.7811   -3.6378    0.0000 H       1  UNL1        0.0271
    119 H           7.3791   -0.2294    0.0000 H       1  UNL1        0.2098
    120 H          12.3258   -3.2355    0.0000 H       1  UNL1        0.0235
    121 H          12.9435   -2.6131    0.0000 H       1  UNL1        0.0235
    122 H          12.3211   -1.9955    0.0000 H       1  UNL1        0.0235
    123 H          11.2911   -3.7955    0.0000 H       1  UNL1        0.0235
    124 H          12.1389   -4.0192    0.0000 H       1  UNL1        0.0235
    125 H          12.3625   -3.1714    0.0000 H       1  UNL1        0.0235
    126 H          10.7985    7.0374    0.0000 H       1  UNL1        0.0938
    127 H          11.3506    8.3411    0.0000 H       1  UNL1        0.0671
    128 H           8.2700   -3.8372    0.0000 H       1  UNL1        0.1097
    129 H          12.7556    8.5149    0.0000 H       1  UNL1        0.0648
    130 H          13.0566    6.0812    0.0000 H       1  UNL1        0.0741
    131 H           7.7331   -5.1472    0.0000 H       1  UNL1        0.0825
    132 H          13.6087    7.3850    0.0000 H       1  UNL1        0.0652
    133 H          10.4904    8.8511    0.0000 H       1  UNL1        0.2101
    134 H           6.3301   -5.3372    0.0000 H       1  UNL1        0.0663
    135 H           5.7890   -2.9446    0.0000 H       1  UNL1        0.0588
    136 H           5.3905   -3.6349    0.0000 H       1  UNL1        0.0588
    137 H           5.4641   -4.2172    0.0000 H       1  UNL1        0.0644
    138 H          11.6934    9.5272    0.0000 H       1  UNL1        0.2100
    139 H          13.9543    8.8111    0.0000 H       1  UNL1        0.2100
    140 H           4.5981   -4.7172    0.0000 H       1  UNL1        0.2100
    141 H           6.0010   -5.9072    0.0000 H       1  UNL1        0.0938
    142 H          15.3290    6.3650    0.0000 H       1  UNL1        0.2951
    143 H           6.0010   -8.1472    0.0000 H       1  UNL1        0.0671
    144 H          10.9417   -5.1349    0.0000 H       1  UNL1        0.0381
    145 H          10.5432   -4.4446    0.0000 H       1  UNL1        0.0381
    146 H           4.5981   -8.3372    0.0000 H       1  UNL1        0.0648
    147 H           4.2690   -5.9072    0.0000 H       1  UNL1        0.0647
    148 H           4.2690   -8.1472    0.0000 H       1  UNL1        0.0647
    149 H           9.7206   -5.9196    0.0000 H       1  UNL1        0.0318
    150 H          10.1191   -6.6099    0.0000 H       1  UNL1        0.0318
    151 H           7.4040   -7.7172    0.0000 H       1  UNL1        0.2101
    152 H           3.8015   -5.5523    0.0000 H       1  UNL1        0.0584
    153 H           3.0044   -5.5523    0.0000 H       1  UNL1        0.0584
    154 H           5.6720   -9.3372    0.0000 H       1  UNL1        0.2100
    155 H           3.4030   -8.6472    0.0000 H       1  UNL1        0.2100
    156 H          10.6603   -7.8372    0.0000 H       1  UNL1        0.0658
    157 H          12.0632   -5.4072    0.0000 H       1  UNL1        0.0621
    158 H           2.0000   -6.2172    0.0000 H       1  UNL1        0.2095
    159 H          13.4662   -6.2172    0.0000 H       1  UNL1        0.0655
    160 H          14.3322   -7.7172    0.0000 H       1  UNL1        0.2923
    161 H          12.6192  -10.0642    0.0000 H       1  UNL1        0.0660
    162 H          13.4662   -9.8372    0.0000 H       1  UNL1        0.0660
    163 H          13.2392   -8.9903    0.0000 H       1  UNL1        0.0660
@<TRIPOS>BOND
     1     1    39    1
     2     1    53    1
     3     2    37    1
     4     2   119    1
     5     3    50    1
     6     3    55    1
     7     4    50    2
     8     5    53    1
     9     5    57    1
    10     6    55    1
    11     6    61    1
    12     7    54    1
    13     7   133    1
    14     8    56    1
    15     8   138    1
    16     9    58    1
    17     9    64    1
    18    10    59    1
    19    10   139    1
    20    11    60    1
    21    11    65    1
    22    12    62    1
    23    12   140    1
    24    13    63    1
    25    13   142    1
    26    14    63    2
    27    15    65    1
    28    15    69    1
    29    16    64    2
    30    17    66    1
    31    17   151    1
    32    18    68    1
    33    18   154    1
    34    19    70    1
    35    19   155    1
    36    20    72    1
    37    20   158    1
    38    21    76    1
    39    21    79    1
    40    22    78    1
    41    22   160    1
    42    23    24    1
    43    23    26    1
    44    23    28    1
    45    23    38    1
    46    24    25    1
    47    24    33    1
    48    24    80    1
    49    25    27    1
    50    25    34    1
    51    25    41    1
    52    26    31    1
    53    26    35    1
    54    26    43    1
    55    27    29    1
    56    27    30    1
    57    27    81    1
    58    28    29    1
    59    28    82    1
    60    28    83    1
    61    29    84    1
    62    29    85    1
    63    30    39    1
    64    30    47    1
    65    30    48    1
    66    31    32    1
    67    31    40    2
    68    32    36    1
    69    32    44    1
    70    32    86    1
    71    33    40    1
    72    33    87    1
    73    33    88    1
    74    34    42    1
    75    34    89    1
    76    34    90    1
    77    35    37    1
    78    35    91    1
    79    35    92    1
    80    36    37    1
    81    36    45    1
    82    36    50    1
    83    37    93    1
    84    38    94    1
    85    38    95    1
    86    38    96    1
    87    39    42    1
    88    39    97    1
    89    40    98    1
    90    41    99    1
    91    41   100    1
    92    41   101    1
    93    42   102    1
    94    42   103    1
    95    43   104    1
    96    43   105    1
    97    43   106    1
    98    44    46    1
    99    44   107    1
   100    44   108    1
   101    45    49    1
   102    45   109    1
   103    45   110    1
   104    46    49    1
   105    46    51    1
   106    46    52    1
   107    47   111    1
   108    47   112    1
   109    47   113    1
   110    48   114    1
   111    48   115    1
   112    48   116    1
   113    49   117    1
   114    49   118    1
   115    51   120    1
   116    51   121    1
   117    51   122    1
   118    52   123    1
   119    52   124    1
   120    52   125    1
   121    53    54    1
   122    53   126    1
   123    54    56    1
   124    54   127    1
   125    55    58    1
   126    55   128    1
   127    56    59    1
   128    56   129    1
   129    57    59    1
   130    57    63    1
   131    57   130    1
   132    58    60    1
   133    58   131    1
   134    59   132    1
   135    60    62    1
   136    60   134    1
   137    61    62    1
   138    61   135    1
   139    61   136    1
   140    62   137    1
   141    64    67    1
   142    65    66    1
   143    65   141    1
   144    66    68    1
   145    66   143    1
   146    67    71    1
   147    67   144    1
   148    67   145    1
   149    68    70    1
   150    68   146    1
   151    69    70    1
   152    69    72    1
   153    69   147    1
   154    70   148    1
   155    71    73    1
   156    71   149    1
   157    71   150    1
   158    72   152    1
   159    72   153    1
   160    73    74   ar
   161    73    75   ar
   162    74    76   ar
   163    74   156    1
   164    75    77   ar
   165    75   157    1
   166    76    78   ar
   167    77    78   ar
   168    77   159    1
   169    79   161    1
   170    79   162    1
   171    79   163    1
