@<TRIPOS>MOLECULE
IMPHY010188
 51 54 0 0 0
SMALL
GASTEIGER

@<TRIPOS>ATOM
      1 O           7.4624   -0.4291    0.0000 O.3     1  UNL1       -0.3116
      2 O           6.3507    1.1083    0.0000 O.3     1  UNL1       -0.4586
      3 O           7.7422   -2.1833    0.0000 O.3     1  UNL1       -0.3665
      4 O           4.9857    2.8405    0.0000 O.3     1  UNL1       -0.5031
      5 O           2.3363   -0.4547    0.0000 O.2     1  UNL1       -0.2957
      6 C           5.8507   -0.4305    0.0000 C.3     1  UNL1        0.0701
      7 C           6.1603   -1.3752    0.0000 C.3     1  UNL1        0.0307
      8 C           5.9633   -2.3917    0.0000 C.3     1  UNL1       -0.0264
      9 C           6.6597    0.1572    0.0000 C.3     1  UNL1        0.2145
     10 C           4.8619   -0.7379    0.0000 C.3     1  UNL1       -0.0370
     11 C           7.1544   -1.3743    0.0000 C.3     1  UNL1        0.1645
     12 C           5.1255   -2.6280    0.0000 C.3     1  UNL1       -0.0474
     13 C           4.4978   -1.8434    0.0000 C.3     1  UNL1       -0.0515
     14 C           5.0417    0.1572    0.0000 C.ar    1  UNL1        0.0208
     15 C           6.1165   -3.3799    0.0000 C.3     1  UNL1       -0.0594
     16 C           6.8957   -2.7532    0.0000 C.3     1  UNL1       -0.0594
     17 C           5.3507    1.1083    0.0000 C.ar    1  UNL1        0.1699
     18 C           4.0263   -0.0750    0.0000 C.ar    1  UNL1        0.0221
     19 C           4.6657    1.8930    0.0000 C.ar    1  UNL1        0.1624
     20 C           3.3233    0.6937    0.0000 C.ar    1  UNL1       -0.0441
     21 C           3.6452    1.6843    0.0000 C.ar    1  UNL1        0.0009
     22 C           3.2909   -0.7527    0.0000 C.2     1  UNL1        0.1506
     23 C           2.9789    2.4300    0.0000 C.3     1  UNL1       -0.0179
     24 C           2.0000    2.2259    0.0000 C.3     1  UNL1       -0.0585
     25 C           3.2916    3.3799    0.0000 C.3     1  UNL1       -0.0585
     26 H           6.7015   -2.0307    0.0000 H       1  UNL1        0.0365
     27 H           7.3480    0.6560    0.0000 H       1  UNL1        0.1066
     28 H           4.8032   -0.1206    0.0000 H       1  UNL1        0.0276
     29 H           4.2457   -0.6688    0.0000 H       1  UNL1        0.0276
     30 H           7.7668   -1.2776    0.0000 H       1  UNL1        0.0912
     31 H           4.5942   -2.9476    0.0000 H       1  UNL1        0.0271
     32 H           5.3716   -3.1971    0.0000 H       1  UNL1        0.0271
     33 H           3.9569   -1.5403    0.0000 H       1  UNL1        0.0266
     34 H           4.0968   -2.3162    0.0000 H       1  UNL1        0.0266
     35 H           5.5038   -3.4749    0.0000 H       1  UNL1        0.0235
     36 H           6.6716   -3.3312    0.0000 H       1  UNL1        0.0235
     37 H           7.4738   -2.9772    0.0000 H       1  UNL1        0.0235
     38 H           7.1198   -2.1751    0.0000 H       1  UNL1        0.0235
     39 H           6.2115   -3.9926    0.0000 H       1  UNL1        0.0235
     40 H           6.7292   -3.2849    0.0000 H       1  UNL1        0.0235
     41 H           8.3588   -2.1185    0.0000 H       1  UNL1        0.2125
     42 H           2.7174    0.5624    0.0000 H       1  UNL1        0.0628
     43 H           3.4268   -1.3576    0.0000 H       1  UNL1        0.1081
     44 H           2.5659    2.8924    0.0000 H       1  UNL1        0.0345
     45 H           5.5936    2.9623    0.0000 H       1  UNL1        0.2923
     46 H           3.8805    3.1860    0.0000 H       1  UNL1        0.0235
     47 H           3.4855    3.9688    0.0000 H       1  UNL1        0.0235
     48 H           1.8734    2.8329    0.0000 H       1  UNL1        0.0235
     49 H           2.7027    3.5738    0.0000 H       1  UNL1        0.0235
     50 H           1.3931    2.0994    0.0000 H       1  UNL1        0.0235
     51 H           2.1266    1.6190    0.0000 H       1  UNL1        0.0235
@<TRIPOS>BOND
     1     1     9    1
     2     1    11    1
     3     2     9    1
     4     2    17    1
     5    11     3    1
     6     3    41    1
     7     4    19    1
     8     4    45    1
     9     5    22    2
    10     6     7    1
    11     6     9    1
    12     6    10    1
    13     6    14    1
    14     7     8    1
    15     7    11    1
    16     7    26    1
    17     8    12    1
    18     8    15    1
    19     8    16    1
    20     9    27    1
    21    10    13    1
    22    10    28    1
    23    10    29    1
    24    11    30    1
    25    12    13    1
    26    12    31    1
    27    12    32    1
    28    13    33    1
    29    13    34    1
    30    14    17   ar
    31    14    18   ar
    32    15    35    1
    33    15    39    1
    34    15    40    1
    35    16    36    1
    36    16    37    1
    37    16    38    1
    38    17    19   ar
    39    18    20   ar
    40    18    22    1
    41    19    21   ar
    42    20    21   ar
    43    20    42    1
    44    21    23    1
    45    22    43    1
    46    23    24    1
    47    23    25    1
    48    23    44    1
    49    24    48    1
    50    24    50    1
    51    24    51    1
    52    25    46    1
    53    25    47    1
    54    25    49    1
