@<TRIPOS>MOLECULE
IMPHY013243
 184 193 0 0 0
SMALL
GASTEIGER

@<TRIPOS>ATOM
      1 O          10.4601    7.6363    0.0000 O.3     1  UNL1       -0.3449
      2 O           7.5844    0.5906    0.0000 O.3     1  UNL1       -0.3906
      3 O           8.5991   -1.6222    0.0000 O.3     1  UNL1       -0.4306
      4 O           7.6143   -0.7959    0.0000 O.2     1  UNL1       -0.2500
      5 O          12.1920    7.6163    0.0000 O.3     1  UNL1       -0.3315
      6 O           6.8671   -1.6222    0.0000 O.3     1  UNL1       -0.3360
      7 O          10.4832    9.6362    0.0000 O.3     1  UNL1       -0.3841
      8 O          12.2267   10.6161    0.0000 O.3     1  UNL1       -0.3864
      9 O           8.5991   -3.6222    0.0000 O.3     1  UNL1       -0.4523
     10 O          13.9471    9.5961    0.0000 O.3     1  UNL1       -0.3860
     11 O           6.8671   -4.6222    0.0000 O.3     1  UNL1       -0.3389
     12 O           5.1350   -3.6222    0.0000 O.3     1  UNL1       -0.3868
     13 O          14.7957    8.0862    0.0000 O.3     1  UNL1       -0.4788
     14 O          13.9124    6.5963    0.0000 O.2     1  UNL1       -0.2480
     15 O           5.1350   -4.6222    0.0000 O.3     1  UNL1       -0.3405
     16 O           9.4651   -2.1223    0.0000 O.2     1  UNL1       -0.2508
     17 O           6.8671   -6.6222    0.0000 O.3     1  UNL1       -0.3841
     18 O           5.1350   -7.6222    0.0000 O.3     1  UNL1       -0.3864
     19 O           3.4030   -6.6222    0.0000 O.3     1  UNL1       -0.3865
     20 O           2.5369   -5.1222    0.0000 O.3     1  UNL1       -0.3924
     21 O          13.7953   -4.6222    0.0000 O.3     1  UNL1       -0.4914
     22 O          13.7953   -6.6222    0.0000 O.3     1  UNL1       -0.4572
     23 O          14.6613   -8.1222    0.0000 O.3     1  UNL1       -0.3313
     24 O          12.0632   -7.6222    0.0000 O.3     1  UNL1       -0.3829
     25 O          12.0632   -9.6222    0.0000 O.3     1  UNL1       -0.3864
     26 O          13.7953  -10.6222    0.0000 O.3     1  UNL1       -0.3865
     27 O          16.3933   -9.1222    0.0000 O.3     1  UNL1       -0.3924
     28 C           9.5048    2.9468    0.0000 C.3     1  UNL1       -0.0193
     29 C          10.3746    3.4401    0.0000 C.3     1  UNL1       -0.0257
     30 C          10.3987    4.4815    0.0000 C.3     1  UNL1       -0.0250
     31 C           9.4970    1.9468    0.0000 C.3     1  UNL1       -0.0028
     32 C           9.5048    5.0161    0.0000 C.3     1  UNL1       -0.0278
     33 C           8.5987    3.4606    0.0000 C.3     1  UNL1       -0.0463
     34 C           8.5987    4.5023    0.0000 C.3     1  UNL1       -0.0486
     35 C           9.5048    6.1011    0.0000 C.3     1  UNL1       -0.0052
     36 C          10.3592    1.4402    0.0000 C.2     1  UNL1       -0.0627
     37 C          10.3672    0.3986    0.0000 C.3     1  UNL1       -0.0007
     38 C          11.2368    2.9334    0.0000 C.3     1  UNL1       -0.0306
     39 C          11.3546    4.9947    0.0000 C.3     1  UNL1       -0.0447
     40 C           8.5832    1.4470    0.0000 C.3     1  UNL1       -0.0162
     41 C           9.4651   -0.1222    0.0000 C.3     1  UNL1        0.1000
     42 C           8.5671    0.4055    0.0000 C.3     1  UNL1        0.0723
     43 C           8.5186    2.7808    0.0000 C.3     1  UNL1       -0.0585
     44 C          10.4485    6.6364    0.0000 C.3     1  UNL1        0.0672
     45 C          11.2290    1.9335    0.0000 C.2     1  UNL1       -0.0836
     46 C          11.2569    3.9682    0.0000 C.3     1  UNL1       -0.0590
     47 C          11.3797    6.0794    0.0000 C.3     1  UNL1       -0.0255
     48 C           8.5136    2.1281    0.0000 C.3     1  UNL1       -0.0552
     49 C          11.3151   -0.1294    0.0000 C.3     1  UNL1       -0.0402
     50 C           9.4484   -1.2071    0.0000 C.3     1  UNL1       -0.0338
     51 C          11.3235   -1.2143    0.0000 C.3     1  UNL1       -0.0343
     52 C           9.0081    6.9691    0.0000 C.3     1  UNL1       -0.0572
     53 C           8.5048    6.1050    0.0000 C.3     1  UNL1       -0.0572
     54 C          10.3838   -1.7568    0.0000 C.3     1  UNL1       -0.0467
     55 C           8.5991   -0.6222    0.0000 C.2     1  UNL1        0.3187
     56 C          12.3235   -1.2105    0.0000 C.3     1  UNL1       -0.0598
     57 C          11.8268   -2.0784    0.0000 C.3     1  UNL1       -0.0598
     58 C          11.3319    8.1262    0.0000 C.3     1  UNL1        0.1888
     59 C          11.3434    9.1262    0.0000 C.3     1  UNL1        0.1341
     60 C           7.7331   -2.1223    0.0000 C.3     1  UNL1        0.2447
     61 C          12.2152    9.6161    0.0000 C.3     1  UNL1        0.1145
     62 C          13.0638    8.1062    0.0000 C.3     1  UNL1        0.1859
     63 C           7.7331   -3.1223    0.0000 C.3     1  UNL1        0.1933
     64 C          13.0753    9.1061    0.0000 C.3     1  UNL1        0.1201
     65 C           6.8671   -3.6222    0.0000 C.3     1  UNL1        0.1324
     66 C           6.0010   -2.1223    0.0000 C.3     1  UNL1        0.0803
     67 C           6.0010   -3.1223    0.0000 C.3     1  UNL1        0.1084
     68 C          13.9240    7.5962    0.0000 C.2     1  UNL1        0.3367
     69 C           9.4651   -3.1223    0.0000 C.2     1  UNL1        0.3079
     70 C           6.0010   -5.1222    0.0000 C.3     1  UNL1        0.1885
     71 C           6.0010   -6.1222    0.0000 C.3     1  UNL1        0.1341
     72 C          10.3312   -3.6222    0.0000 C.3     1  UNL1        0.0489
     73 C           5.1350   -6.6222    0.0000 C.3     1  UNL1        0.1141
     74 C           4.2690   -5.1222    0.0000 C.3     1  UNL1        0.1130
     75 C           4.2690   -6.1222    0.0000 C.3     1  UNL1        0.1119
     76 C          10.3312   -4.6222    0.0000 C.3     1  UNL1       -0.0175
     77 C           3.4030   -4.6222    0.0000 C.3     1  UNL1        0.0730
     78 C          11.1972   -5.1222    0.0000 C.ar    1  UNL1       -0.0432
     79 C          12.0632   -4.6222    0.0000 C.ar    1  UNL1       -0.0131
     80 C          11.1972   -6.1222    0.0000 C.ar    1  UNL1       -0.0549
     81 C          12.9292   -5.1222    0.0000 C.ar    1  UNL1        0.1619
     82 C          12.0632   -6.6222    0.0000 C.ar    1  UNL1       -0.0159
     83 C          12.9292   -6.1222    0.0000 C.ar    1  UNL1        0.1654
     84 C          13.7953   -7.6222    0.0000 C.3     1  UNL1        0.2310
     85 C          14.6613   -5.1222    0.0000 C.3     1  UNL1        0.0790
     86 C          12.9292   -8.1222    0.0000 C.3     1  UNL1        0.1454
     87 C          12.9292   -9.1222    0.0000 C.3     1  UNL1        0.1152
     88 C          14.6613   -9.1222    0.0000 C.3     1  UNL1        0.1140
     89 C          13.7953   -9.6222    0.0000 C.3     1  UNL1        0.1120
     90 C          15.5273   -9.6222    0.0000 C.3     1  UNL1        0.0731
     91 H          10.9163    3.7418    0.0000 H       1  UNL1        0.0315
     92 H           8.9690    5.3282    0.0000 H       1  UNL1        0.0312
     93 H           7.9878    3.5667    0.0000 H       1  UNL1        0.0271
     94 H           8.3896    2.8770    0.0000 H       1  UNL1        0.0271
     95 H           8.3896    5.0860    0.0000 H       1  UNL1        0.0268
     96 H           7.9878    4.3962    0.0000 H       1  UNL1        0.0268
     97 H          10.9005    0.7148    0.0000 H       1  UNL1        0.0357
     98 H          11.8465    2.8211    0.0000 H       1  UNL1        0.0310
     99 H          11.4533    3.5144    0.0000 H       1  UNL1        0.0310
    100 H          11.5501    4.4064    0.0000 H       1  UNL1        0.0271
    101 H          11.9678    5.0867    0.0000 H       1  UNL1        0.0271
    102 H           8.3831    2.0339    0.0000 H       1  UNL1        0.0299
    103 H           7.9707    1.3504    0.0000 H       1  UNL1        0.0299
    104 H           8.3494   -0.1750    0.0000 H       1  UNL1        0.0605
    105 H           8.4157    3.3922    0.0000 H       1  UNL1        0.0235
    106 H           7.9072    2.6779    0.0000 H       1  UNL1        0.0235
    107 H           8.6216    2.1694    0.0000 H       1  UNL1        0.0235
    108 H          10.9896    6.9391    0.0000 H       1  UNL1        0.0602
    109 H          11.7636    1.6194    0.0000 H       1  UNL1        0.0572
    110 H          10.9387    3.4361    0.0000 H       1  UNL1        0.0235
    111 H          11.7890    3.6499    0.0000 H       1  UNL1        0.0235
    112 H          11.5751    4.5003    0.0000 H       1  UNL1        0.0235
    113 H          11.9879    5.9592    0.0000 H       1  UNL1        0.0290
    114 H          11.6022    6.6581    0.0000 H       1  UNL1        0.0290
    115 H           8.6260    2.7378    0.0000 H       1  UNL1        0.0238
    116 H           7.9039    2.2404    0.0000 H       1  UNL1        0.0238
    117 H           8.4012    1.5183    0.0000 H       1  UNL1        0.0238
    118 H          11.9268   -0.2308    0.0000 H       1  UNL1        0.0276
    119 H          11.5197    0.4559    0.0000 H       1  UNL1        0.0276
    120 H           8.8393   -1.0916    0.0000 H       1  UNL1        0.0277
    121 H           9.2304   -1.7875    0.0000 H       1  UNL1        0.0277
    122 H           9.5462    7.2770    0.0000 H       1  UNL1        0.0236
    123 H           8.7002    7.5072    0.0000 H       1  UNL1        0.0236
    124 H           8.4700    6.6611    0.0000 H       1  UNL1        0.0236
    125 H           8.5072    6.7250    0.0000 H       1  UNL1        0.0236
    126 H           7.8848    6.1074    0.0000 H       1  UNL1        0.0236
    127 H           8.5024    5.4850    0.0000 H       1  UNL1        0.0236
    128 H           9.9829   -2.2297    0.0000 H       1  UNL1        0.0271
    129 H          10.7811   -2.2328    0.0000 H       1  UNL1        0.0271
    130 H           7.3791    1.1756    0.0000 H       1  UNL1        0.2098
    131 H          12.3258   -1.8305    0.0000 H       1  UNL1        0.0235
    132 H          12.9435   -1.2081    0.0000 H       1  UNL1        0.0235
    133 H          12.3211   -0.5905    0.0000 H       1  UNL1        0.0235
    134 H          11.2911   -2.3905    0.0000 H       1  UNL1        0.0235
    135 H          12.1389   -2.6142    0.0000 H       1  UNL1        0.0235
    136 H          12.3625   -1.7664    0.0000 H       1  UNL1        0.0235
    137 H          10.7985    8.4424    0.0000 H       1  UNL1        0.0938
    138 H          11.3506    9.7461    0.0000 H       1  UNL1        0.0671
    139 H           8.2700   -2.4322    0.0000 H       1  UNL1        0.1097
    140 H          12.7556    9.9199    0.0000 H       1  UNL1        0.0648
    141 H          13.0566    7.4862    0.0000 H       1  UNL1        0.0741
    142 H           7.7331   -3.7422    0.0000 H       1  UNL1        0.0825
    143 H          13.6087    8.7900    0.0000 H       1  UNL1        0.0652
    144 H          10.4904   10.2561    0.0000 H       1  UNL1        0.2101
    145 H           6.3301   -3.9322    0.0000 H       1  UNL1        0.0663
    146 H           5.7890   -1.5396    0.0000 H       1  UNL1        0.0588
    147 H           5.3905   -2.2299    0.0000 H       1  UNL1        0.0588
    148 H           5.4641   -2.8122    0.0000 H       1  UNL1        0.0644
    149 H          11.6934   10.9322    0.0000 H       1  UNL1        0.2100
    150 H          13.9543   10.2161    0.0000 H       1  UNL1        0.2100
    151 H           4.5981   -3.3122    0.0000 H       1  UNL1        0.2100
    152 H           6.0010   -4.5022    0.0000 H       1  UNL1        0.0938
    153 H          15.3290    7.7700    0.0000 H       1  UNL1        0.2951
    154 H           6.0010   -6.7422    0.0000 H       1  UNL1        0.0671
    155 H          10.9417   -3.7299    0.0000 H       1  UNL1        0.0381
    156 H          10.5432   -3.0396    0.0000 H       1  UNL1        0.0381
    157 H           4.5981   -6.9322    0.0000 H       1  UNL1        0.0648
    158 H           4.2690   -4.5022    0.0000 H       1  UNL1        0.0647
    159 H           4.2690   -6.7422    0.0000 H       1  UNL1        0.0647
    160 H           9.7206   -4.5146    0.0000 H       1  UNL1        0.0318
    161 H          10.1191   -5.2049    0.0000 H       1  UNL1        0.0318
    162 H           7.4040   -6.3122    0.0000 H       1  UNL1        0.2101
    163 H           3.8015   -4.1473    0.0000 H       1  UNL1        0.0584
    164 H           3.0044   -4.1473    0.0000 H       1  UNL1        0.0584
    165 H           5.6720   -7.9322    0.0000 H       1  UNL1        0.2100
    166 H           3.4030   -7.2422    0.0000 H       1  UNL1        0.2100
    167 H          12.0632   -4.0022    0.0000 H       1  UNL1        0.0658
    168 H          10.6603   -6.4322    0.0000 H       1  UNL1        0.0621
    169 H           2.0000   -4.8122    0.0000 H       1  UNL1        0.2095
    170 H          12.0632   -7.2422    0.0000 H       1  UNL1        0.0655
    171 H          13.2583   -7.3122    0.0000 H       1  UNL1        0.1084
    172 H          14.3513   -5.6592    0.0000 H       1  UNL1        0.0660
    173 H          15.1982   -5.4322    0.0000 H       1  UNL1        0.0660
    174 H          14.9713   -4.5853    0.0000 H       1  UNL1        0.0660
    175 H          13.4662   -8.4322    0.0000 H       1  UNL1        0.0683
    176 H          12.9292   -9.7422    0.0000 H       1  UNL1        0.0648
    177 H          15.1982   -8.8122    0.0000 H       1  UNL1        0.0647
    178 H          14.3322   -9.9322    0.0000 H       1  UNL1        0.0647
    179 H          11.5263   -7.9322    0.0000 H       1  UNL1        0.2102
    180 H          15.1288  -10.0972    0.0000 H       1  UNL1        0.0584
    181 H          15.9258  -10.0972    0.0000 H       1  UNL1        0.0584
    182 H          12.0632  -10.2422    0.0000 H       1  UNL1        0.2100
    183 H          14.3322  -10.9322    0.0000 H       1  UNL1        0.2100
    184 H          16.9303   -9.4322    0.0000 H       1  UNL1        0.2095
@<TRIPOS>BOND
     1     1    44    1
     2     1    58    1
     3     2    42    1
     4     2   130    1
     5     3    55    1
     6     3    60    1
     7     4    55    2
     8     5    58    1
     9     5    62    1
    10     6    60    1
    11     6    66    1
    12     7    59    1
    13     7   144    1
    14     8    61    1
    15     8   149    1
    16     9    63    1
    17     9    69    1
    18    10    64    1
    19    10   150    1
    20    11    65    1
    21    11    70    1
    22    12    67    1
    23    12   151    1
    24    13    68    1
    25    13   153    1
    26    14    68    2
    27    15    70    1
    28    15    74    1
    29    16    69    2
    30    17    71    1
    31    17   162    1
    32    18    73    1
    33    18   165    1
    34    19    75    1
    35    19   166    1
    36    20    77    1
    37    20   169    1
    38    21    81    1
    39    21    85    1
    40    22    83    1
    41    22    84    1
    42    23    84    1
    43    23    88    1
    44    24    86    1
    45    24   179    1
    46    25    87    1
    47    25   182    1
    48    26    89    1
    49    26   183    1
    50    27    90    1
    51    27   184    1
    52    28    29    1
    53    28    31    1
    54    28    33    1
    55    28    43    1
    56    29    30    1
    57    29    38    1
    58    29    91    1
    59    30    32    1
    60    30    39    1
    61    30    46    1
    62    31    36    1
    63    31    40    1
    64    31    48    1
    65    32    34    1
    66    32    35    1
    67    32    92    1
    68    33    34    1
    69    33    93    1
    70    33    94    1
    71    34    95    1
    72    34    96    1
    73    35    44    1
    74    35    52    1
    75    35    53    1
    76    36    37    1
    77    36    45    2
    78    37    41    1
    79    37    49    1
    80    37    97    1
    81    38    45    1
    82    38    98    1
    83    38    99    1
    84    39    47    1
    85    39   100    1
    86    39   101    1
    87    40    42    1
    88    40   102    1
    89    40   103    1
    90    41    42    1
    91    41    50    1
    92    41    55    1
    93    42   104    1
    94    43   105    1
    95    43   106    1
    96    43   107    1
    97    44    47    1
    98    44   108    1
    99    45   109    1
   100    46   110    1
   101    46   111    1
   102    46   112    1
   103    47   113    1
   104    47   114    1
   105    48   115    1
   106    48   116    1
   107    48   117    1
   108    49    51    1
   109    49   118    1
   110    49   119    1
   111    50    54    1
   112    50   120    1
   113    50   121    1
   114    51    54    1
   115    51    56    1
   116    51    57    1
   117    52   122    1
   118    52   123    1
   119    52   124    1
   120    53   125    1
   121    53   126    1
   122    53   127    1
   123    54   128    1
   124    54   129    1
   125    56   131    1
   126    56   132    1
   127    56   133    1
   128    57   134    1
   129    57   135    1
   130    57   136    1
   131    58    59    1
   132    58   137    1
   133    59    61    1
   134    59   138    1
   135    60    63    1
   136    60   139    1
   137    61    64    1
   138    61   140    1
   139    62    64    1
   140    62    68    1
   141    62   141    1
   142    63    65    1
   143    63   142    1
   144    64   143    1
   145    65    67    1
   146    65   145    1
   147    66    67    1
   148    66   146    1
   149    66   147    1
   150    67   148    1
   151    69    72    1
   152    70    71    1
   153    70   152    1
   154    71    73    1
   155    71   154    1
   156    72    76    1
   157    72   155    1
   158    72   156    1
   159    73    75    1
   160    73   157    1
   161    74    75    1
   162    74    77    1
   163    74   158    1
   164    75   159    1
   165    76    78    1
   166    76   160    1
   167    76   161    1
   168    77   163    1
   169    77   164    1
   170    78    79   ar
   171    78    80   ar
   172    79    81   ar
   173    79   167    1
   174    80    82   ar
   175    80   168    1
   176    81    83   ar
   177    82    83   ar
   178    82   170    1
   179    84    86    1
   180    84   171    1
   181    85   172    1
   182    85   173    1
   183    85   174    1
   184    86    87    1
   185    86   175    1
   186    87    89    1
   187    87   176    1
   188    88    89    1
   189    88    90    1
   190    88   177    1
   191    89   178    1
   192    90   180    1
   193    90   181    1
