@<TRIPOS>MOLECULE
IMPHY012883
 51 54 0 0 0
SMALL
GASTEIGER

@<TRIPOS>ATOM
      1 O           5.1350   -0.6121    0.0000 O.3     1  UNL1       -0.3221
      2 O           6.8671   -0.6121    0.0000 O.3     1  UNL1       -0.4562
      3 O           5.1350   -3.6121    0.0000 O.3     1  UNL1       -0.3863
      4 O           6.8671   -2.6121    0.0000 O.3     1  UNL1       -0.3829
      5 O           3.4030   -2.6121    0.0000 O.3     1  UNL1       -0.3860
      6 O           2.5369   -1.1121    0.0000 O.3     1  UNL1       -0.4788
      7 O           3.4030    0.3879    0.0000 O.2     1  UNL1       -0.2480
      8 O           8.6270    2.4226    0.0000 O.2     1  UNL1       -0.4544
      9 O           5.1350    0.3879    0.0000 O.3     1  UNL1       -0.5009
     10 O           5.1350    2.3879    0.0000 O.3     1  UNL1       -0.5031
     11 O           8.6155   -0.6467    0.0000 O.2     1  UNL1       -0.2869
     12 O          12.9895    3.9221    0.0000 O.3     1  UNL1       -0.5068
     13 C           5.1350   -2.6121    0.0000 C.3     1  UNL1        0.1157
     14 C           6.0010   -2.1121    0.0000 C.3     1  UNL1        0.1455
     15 C           4.2690   -2.1121    0.0000 C.3     1  UNL1        0.1202
     16 C           6.0010   -1.1121    0.0000 C.3     1  UNL1        0.2314
     17 C           4.2690   -1.1121    0.0000 C.3     1  UNL1        0.1869
     18 C           3.4030   -0.6121    0.0000 C.2     1  UNL1        0.3367
     19 C           6.8671    0.3879    0.0000 C.ar    1  UNL1        0.1832
     20 C           7.7331    0.8879    0.0000 C.ar    1  UNL1        0.1095
     21 C           6.0010    0.8879    0.0000 C.ar    1  UNL1        0.2019
     22 C           7.7331    1.8879    0.0000 C.ar    1  UNL1        0.1465
     23 C           8.6270    0.3533    0.0000 C.ar    1  UNL1        0.1967
     24 C           6.0010    1.8879    0.0000 C.ar    1  UNL1        0.1655
     25 C           6.8671    2.3879    0.0000 C.ar    1  UNL1        0.0268
     26 C           9.5331    1.9087    0.0000 C.ar    1  UNL1        0.1392
     27 C           9.5331    0.8671    0.0000 C.ar    1  UNL1        0.0288
     28 C          10.3972    2.4121    0.0000 C.ar    1  UNL1        0.0176
     29 C          10.3933    3.4121    0.0000 C.ar    1  UNL1       -0.0476
     30 C          11.2651    1.9154    0.0000 C.ar    1  UNL1       -0.0476
     31 C          11.2574    3.9154    0.0000 C.ar    1  UNL1       -0.0195
     32 C          12.1292    2.4188    0.0000 C.ar    1  UNL1       -0.0195
     33 C          12.1254    3.4187    0.0000 C.ar    1  UNL1        0.1169
     34 H           4.5981   -2.9221    0.0000 H       1  UNL1        0.0648
     35 H           6.0010   -2.7321    0.0000 H       1  UNL1        0.0683
     36 H           3.7320   -1.8021    0.0000 H       1  UNL1        0.0652
     37 H           6.0010   -0.4921    0.0000 H       1  UNL1        0.1084
     38 H           4.2690   -0.4921    0.0000 H       1  UNL1        0.0742
     39 H           5.6720   -3.9221    0.0000 H       1  UNL1        0.2100
     40 H           7.4040   -2.3021    0.0000 H       1  UNL1        0.2102
     41 H           3.4030   -3.2321    0.0000 H       1  UNL1        0.2100
     42 H           2.0000   -0.8021    0.0000 H       1  UNL1        0.2951
     43 H           6.8671    3.0079    0.0000 H       1  UNL1        0.0692
     44 H          10.0688    0.5550    0.0000 H       1  UNL1        0.0693
     45 H           4.5981    0.6979    0.0000 H       1  UNL1        0.2924
     46 H           5.1350    3.0079    0.0000 H       1  UNL1        0.2923
     47 H           9.8552    3.7200    0.0000 H       1  UNL1        0.0626
     48 H          11.2675    1.2954    0.0000 H       1  UNL1        0.0626
     49 H          11.2550    4.5354    0.0000 H       1  UNL1        0.0654
     50 H          12.6674    2.1108    0.0000 H       1  UNL1        0.0654
     51 H          13.5276    3.6142    0.0000 H       1  UNL1        0.2921
@<TRIPOS>BOND
     1     1    16    1
     2     1    17    1
     3    16     2    1
     4     2    19    1
     5    13     3    1
     6     3    39    1
     7    14     4    1
     8     4    40    1
     9    15     5    1
    10     5    41    1
    11     6    18    1
    12     6    42    1
    13     7    18    2
    14     8    22   ar
    15     8    26   ar
    16     9    21    1
    17     9    45    1
    18    10    24    1
    19    10    46    1
    20    11    23    2
    21    12    33    1
    22    12    51    1
    23    13    14    1
    24    13    15    1
    25    13    34    1
    26    14    16    1
    27    14    35    1
    28    15    17    1
    29    15    36    1
    30    16    37    1
    31    17    18    1
    32    17    38    1
    33    19    20   ar
    34    19    21   ar
    35    20    22   ar
    36    20    23   ar
    37    21    24   ar
    38    22    25   ar
    39    23    27   ar
    40    24    25   ar
    41    25    43    1
    42    26    27   ar
    43    26    28    1
    44    27    44    1
    45    28    29   ar
    46    28    30   ar
    47    29    31   ar
    48    29    47    1
    49    30    32   ar
    50    30    48    1
    51    31    33   ar
    52    31    49    1
    53    32    33   ar
    54    32    50    1
