@<TRIPOS>MOLECULE
IMPHY011355
 62 64 0 0 0
SMALL
GASTEIGER

@<TRIPOS>ATOM
      1 O          11.9309   -2.0932    0.0000 O.3     1  UNL1       -0.3899
      2 O           8.4358   -1.8805    0.0000 O.3     1  UNL1       -0.4581
      3 O           6.9408   -1.6997    0.0000 O.3     1  UNL1       -0.3745
      4 O           5.8615    0.4374    0.0000 O.3     1  UNL1       -0.4551
      5 O           8.7959   -0.1863    0.0000 O.2     1  UNL1       -0.2474
      6 O           4.2142   -0.0978    0.0000 O.2     1  UNL1       -0.2456
      7 N          10.6740   -4.3485    0.0000 N.3     1  UNL1       -0.2895
      8 C          10.6740   -3.3485    0.0000 C.3     1  UNL1        0.0611
      9 C          11.6203   -3.0437    0.0000 C.3     1  UNL1        0.0758
     10 C          11.6203   -4.6532    0.0000 C.3     1  UNL1        0.0023
     11 C          12.2039   -3.8485    0.0000 C.3     1  UNL1       -0.0122
     12 C           9.7230   -3.0395    0.0000 C.2     1  UNL1       -0.0158
     13 C           9.7230   -4.6575    0.0000 C.3     1  UNL1        0.0182
     14 C           9.1352   -3.8485    0.0000 C.2     1  UNL1       -0.0661
     15 C           9.4140   -2.0884    0.0000 C.3     1  UNL1        0.1152
     16 C           7.1487   -0.7215    0.0000 C.3     1  UNL1        0.2012
     17 C           7.3566    0.2566    0.0000 C.3     1  UNL1       -0.0037
     18 C           8.1268   -0.9294    0.0000 C.2     1  UNL1        0.3435
     19 C           6.1705   -0.5136    0.0000 C.3     1  UNL1        0.1398
     20 C           6.6134    0.9258    0.0000 C.3     1  UNL1       -0.0594
     21 C           8.3076    0.5656    0.0000 C.3     1  UNL1       -0.0594
     22 C           5.5014   -1.2568    0.0000 C.3     1  UNL1       -0.0244
     23 C           4.8834    0.6454    0.0000 C.2     1  UNL1        0.3323
     24 C           4.5743    1.5964    0.0000 C.2     1  UNL1        0.0231
     25 C           3.5962    1.8043    0.0000 C.2     1  UNL1       -0.0478
     26 C           3.2872    2.7554    0.0000 C.ar    1  UNL1       -0.0248
     27 C           3.9563    3.4985    0.0000 C.ar    1  UNL1       -0.0546
     28 C           2.3090    2.9633    0.0000 C.ar    1  UNL1       -0.0546
     29 C           3.6473    4.4496    0.0000 C.ar    1  UNL1       -0.0612
     30 C           2.0000    3.9144    0.0000 C.ar    1  UNL1       -0.0612
     31 C           2.6691    4.6575    0.0000 C.ar    1  UNL1       -0.0617
     32 H          10.6751   -2.4985    0.0000 H       1  UNL1        0.0536
     33 H          12.2328   -2.9476    0.0000 H       1  UNL1        0.0612
     34 H          11.3692   -5.2201    0.0000 H       1  UNL1        0.0428
     35 H          12.1576   -4.9624    0.0000 H       1  UNL1        0.0428
     36 H          12.6647   -4.2632    0.0000 H       1  UNL1        0.0303
     37 H          12.6647   -3.4338    0.0000 H       1  UNL1        0.0303
     38 H           9.1860   -4.9675    0.0000 H       1  UNL1        0.0470
     39 H           9.9752   -5.2239    0.0000 H       1  UNL1        0.0470
     40 H           8.5152   -3.8485    0.0000 H       1  UNL1        0.0586
     41 H          10.0279   -2.0021    0.0000 H       1  UNL1        0.0746
     42 H           9.4356   -1.4688    0.0000 H       1  UNL1        0.0746
     43 H          12.5376   -1.9654    0.0000 H       1  UNL1        0.2099
     44 H           7.8173   -0.1582    0.0000 H       1  UNL1        0.0330
     45 H           6.5854   -0.0529    0.0000 H       1  UNL1        0.0766
     46 H           7.0283    1.3865    0.0000 H       1  UNL1        0.0233
     47 H           6.1527    1.3406    0.0000 H       1  UNL1        0.0233
     48 H           6.1986    0.4650    0.0000 H       1  UNL1        0.0233
     49 H           8.4992   -0.0240    0.0000 H       1  UNL1        0.0233
     50 H           8.8973    0.7572    0.0000 H       1  UNL1        0.0233
     51 H           8.1160    1.1553    0.0000 H       1  UNL1        0.0233
     52 H           5.0406   -0.8419    0.0000 H       1  UNL1        0.0266
     53 H           5.0865   -1.7175    0.0000 H       1  UNL1        0.0266
     54 H           5.9621   -1.6716    0.0000 H       1  UNL1        0.0266
     55 H           6.3511   -1.8913    0.0000 H       1  UNL1        0.2110
     56 H           4.9892    2.0572    0.0000 H       1  UNL1        0.0689
     57 H           3.1813    1.3436    0.0000 H       1  UNL1        0.0626
     58 H           4.5628    3.3696    0.0000 H       1  UNL1        0.0623
     59 H           1.8942    2.5025    0.0000 H       1  UNL1        0.0623
     60 H           4.0621    4.9103    0.0000 H       1  UNL1        0.0618
     61 H           1.3936    4.0432    0.0000 H       1  UNL1        0.0618
     62 H           2.4775    5.2472    0.0000 H       1  UNL1        0.0618
@<TRIPOS>BOND
     1     9     1    1
     2     1    43    1
     3     2    15    1
     4     2    18    1
     5    16     3    1
     6     3    55    1
     7    19     4    1
     8     4    23    1
     9     5    18    2
    10     6    23    2
    11     7     8    1
    12     7    10    1
    13     7    13    1
    14     8     9    1
    15     8    12    1
    16     8    32    1
    17     9    11    1
    18     9    33    1
    19    10    11    1
    20    10    34    1
    21    10    35    1
    22    11    36    1
    23    11    37    1
    24    12    14    2
    25    12    15    1
    26    13    14    1
    27    13    38    1
    28    13    39    1
    29    14    40    1
    30    15    41    1
    31    15    42    1
    32    16    17    1
    33    16    18    1
    34    16    19    1
    35    17    20    1
    36    17    21    1
    37    17    44    1
    38    19    22    1
    39    19    45    1
    40    20    46    1
    41    20    47    1
    42    20    48    1
    43    21    49    1
    44    21    50    1
    45    21    51    1
    46    22    52    1
    47    22    53    1
    48    22    54    1
    49    23    24    1
    50    24    25    2
    51    24    56    1
    52    25    26    1
    53    25    57    1
    54    26    27   ar
    55    26    28   ar
    56    27    29   ar
    57    27    58    1
    58    28    30   ar
    59    28    59    1
    60    29    31   ar
    61    29    60    1
    62    30    31   ar
    63    30    61    1
    64    31    62    1
