@<TRIPOS>MOLECULE
IMPHY016324
 23 23 0 0 0
SMALL
GASTEIGER

@<TRIPOS>ATOM
      1 O           3.7320    2.0000    0.0000 O.3     1  UNL1       -0.4948
      2 O           3.7320   -2.0000    0.0000 O.3     1  UNL1       -0.4951
      3 C           2.8660    0.5000    0.0000 C.ar    1  UNL1       -0.0054
      4 C           3.7320    1.0000    0.0000 C.ar    1  UNL1        0.1232
      5 C           2.8660   -0.5000    0.0000 C.ar    1  UNL1       -0.0136
      6 C           3.7320   -1.0000    0.0000 C.ar    1  UNL1        0.1206
      7 C           4.5981    0.5000    0.0000 C.ar    1  UNL1       -0.0162
      8 C           4.5981   -0.5000    0.0000 C.ar    1  UNL1       -0.0165
      9 C           2.0000    1.0000    0.0000 C.3     1  UNL1       -0.0361
     10 C           4.5981    2.5000    0.0000 C.3     1  UNL1        0.0788
     11 C           4.5981   -2.5000    0.0000 C.3     1  UNL1        0.0788
     12 H           2.3291   -0.8100    0.0000 H       1  UNL1        0.0658
     13 H           5.1350    0.8100    0.0000 H       1  UNL1        0.0655
     14 H           5.1350   -0.8100    0.0000 H       1  UNL1        0.0655
     15 H           2.3100    1.5369    0.0000 H       1  UNL1        0.0279
     16 H           1.4631    1.3100    0.0000 H       1  UNL1        0.0279
     17 H           1.6900    0.4631    0.0000 H       1  UNL1        0.0279
     18 H           4.9081    1.9631    0.0000 H       1  UNL1        0.0660
     19 H           5.1350    2.8100    0.0000 H       1  UNL1        0.0660
     20 H           4.2881    3.0369    0.0000 H       1  UNL1        0.0660
     21 H           4.2881   -3.0369    0.0000 H       1  UNL1        0.0660
     22 H           5.1350   -2.8100    0.0000 H       1  UNL1        0.0660
     23 H           4.9081   -1.9631    0.0000 H       1  UNL1        0.0660
@<TRIPOS>BOND
     1     1     4    1
     2     1    10    1
     3     2     6    1
     4     2    11    1
     5     3     4   ar
     6     3     5   ar
     7     3     9    1
     8     4     7   ar
     9     5     6   ar
    10     5    12    1
    11     6     8   ar
    12     7     8   ar
    13     7    13    1
    14     8    14    1
    15     9    15    1
    16     9    16    1
    17     9    17    1
    18    10    18    1
    19    10    19    1
    20    10    20    1
    21    11    21    1
    22    11    22    1
    23    11    23    1
