@<TRIPOS>MOLECULE
IMPHY012235
 29 29 0 0 0
SMALL
GASTEIGER

@<TRIPOS>ATOM
      1 O           4.5981   -1.5000    0.0000 O.2     1  UNL1       -0.2974
      2 C           2.8660    1.5000    0.0000 C.3     1  UNL1       -0.0531
      3 C           3.7320    1.0000    0.0000 C.3     1  UNL1       -0.0530
      4 C           2.0000    1.0000    0.0000 C.3     1  UNL1       -0.0530
      5 C           4.5981    1.5000    0.0000 C.3     1  UNL1       -0.0527
      6 C           2.0000    0.0000    0.0000 C.3     1  UNL1       -0.0527
      7 C           5.4641    1.0000    0.0000 C.3     1  UNL1       -0.0464
      8 C           2.8660   -0.5000    0.0000 C.3     1  UNL1       -0.0464
      9 C           5.4641   -0.0000    0.0000 C.3     1  UNL1        0.0058
     10 C           3.7320   -0.0000    0.0000 C.3     1  UNL1        0.0058
     11 C           4.5981   -0.5000    0.0000 C.2     1  UNL1        0.1334
     12 H           3.2646    1.9750    0.0000 H       1  UNL1        0.0265
     13 H           2.4675    1.9750    0.0000 H       1  UNL1        0.0265
     14 H           3.3335    0.5251    0.0000 H       1  UNL1        0.0265
     15 H           4.1306    0.5251    0.0000 H       1  UNL1        0.0265
     16 H           1.7880    1.5826    0.0000 H       1  UNL1        0.0265
     17 H           1.3894    0.8923    0.0000 H       1  UNL1        0.0265
     18 H           4.9966    1.9750    0.0000 H       1  UNL1        0.0265
     19 H           4.1996    1.9750    0.0000 H       1  UNL1        0.0265
     20 H           1.3894    0.1077    0.0000 H       1  UNL1        0.0265
     21 H           1.7880   -0.5826    0.0000 H       1  UNL1        0.0265
     22 H           6.0747    0.8923    0.0000 H       1  UNL1        0.0269
     23 H           5.6762    1.5826    0.0000 H       1  UNL1        0.0269
     24 H           2.4675   -0.9749    0.0000 H       1  UNL1        0.0269
     25 H           3.2646   -0.9749    0.0000 H       1  UNL1        0.0269
     26 H           5.6762   -0.5826    0.0000 H       1  UNL1        0.0342
     27 H           6.0747    0.1077    0.0000 H       1  UNL1        0.0342
     28 H           4.1306    0.4749    0.0000 H       1  UNL1        0.0342
     29 H           3.3335    0.4749    0.0000 H       1  UNL1        0.0342
@<TRIPOS>BOND
     1     1    11    2
     2     2     3    1
     3     2     4    1
     4     2    12    1
     5     2    13    1
     6     3     5    1
     7     3    14    1
     8     3    15    1
     9     4     6    1
    10     4    16    1
    11     4    17    1
    12     5     7    1
    13     5    18    1
    14     5    19    1
    15     6     8    1
    16     6    20    1
    17     6    21    1
    18     7     9    1
    19     7    22    1
    20     7    23    1
    21     8    10    1
    22     8    24    1
    23     8    25    1
    24     9    11    1
    25     9    26    1
    26     9    27    1
    27    10    11    1
    28    10    28    1
    29    10    29    1
