@<TRIPOS>MOLECULE
IMPHY004776
 33 34 0 0 0
SMALL
GASTEIGER

@<TRIPOS>ATOM
      1 O           2.5369   -0.9050    0.0000 O.3     1  UNL1       -0.5027
      2 O           2.5369   -2.9050    0.0000 O.3     1  UNL1       -0.5009
      3 O           4.2690   -3.9050    0.0000 O.3     1  UNL1       -0.5032
      4 O           3.4030    0.5950    0.0000 O.2     1  UNL1       -0.2872
      5 O           8.5991    1.5950    0.0000 O.3     1  UNL1       -0.5033
      6 O           8.5991    3.5950    0.0000 O.3     1  UNL1       -0.5033
      7 C           4.2690   -0.9050    0.0000 C.ar    1  UNL1        0.0669
      8 C           3.4030   -1.4050    0.0000 C.ar    1  UNL1        0.1730
      9 C           6.0010    2.0950    0.0000 C.ar    1  UNL1       -0.0212
     10 C           4.2690    0.0950    0.0000 C.2     1  UNL1        0.1897
     11 C           5.1350   -1.4050    0.0000 C.ar    1  UNL1       -0.0437
     12 C           3.4030   -2.4050    0.0000 C.ar    1  UNL1        0.2013
     13 C           5.1350    1.5950    0.0000 C.2     1  UNL1       -0.0508
     14 C           4.2690   -2.9050    0.0000 C.ar    1  UNL1        0.1620
     15 C           5.1350    0.5950    0.0000 C.2     1  UNL1       -0.0137
     16 C           5.1350   -2.4050    0.0000 C.ar    1  UNL1       -0.0156
     17 C           6.8671    1.5950    0.0000 C.ar    1  UNL1       -0.0094
     18 C           6.0010    3.0950    0.0000 C.ar    1  UNL1       -0.0509
     19 C           7.7331    2.0950    0.0000 C.ar    1  UNL1        0.1588
     20 C           7.7331    3.0950    0.0000 C.ar    1  UNL1        0.1582
     21 C           6.8671    3.5950    0.0000 C.ar    1  UNL1       -0.0160
     22 H           5.6720   -1.0950    0.0000 H       1  UNL1        0.0627
     23 H           4.5981    1.9050    0.0000 H       1  UNL1        0.0625
     24 H           5.6720    0.2850    0.0000 H       1  UNL1        0.0656
     25 H           5.6720   -2.7150    0.0000 H       1  UNL1        0.0655
     26 H           6.8671    0.9750    0.0000 H       1  UNL1        0.0661
     27 H           5.4641    3.4050    0.0000 H       1  UNL1        0.0625
     28 H           6.8671    4.2150    0.0000 H       1  UNL1        0.0655
     29 H           2.0000   -1.2150    0.0000 H       1  UNL1        0.2923
     30 H           2.5369   -3.5250    0.0000 H       1  UNL1        0.2924
     31 H           4.8059   -4.2150    0.0000 H       1  UNL1        0.2923
     32 H           9.1360    1.9050    0.0000 H       1  UNL1        0.2923
     33 H           8.5991    4.2150    0.0000 H       1  UNL1        0.2923
@<TRIPOS>BOND
     1     1     8    1
     2     1    29    1
     3     2    12    1
     4     2    30    1
     5     3    14    1
     6     3    31    1
     7     4    10    2
     8     5    19    1
     9     5    32    1
    10     6    20    1
    11     6    33    1
    12     7     8   ar
    13     7    10    1
    14     7    11   ar
    15     8    12   ar
    16     9    13    1
    17     9    17   ar
    18     9    18   ar
    19    10    15    1
    20    11    16   ar
    21    11    22    1
    22    12    14   ar
    23    13    15    2
    24    13    23    1
    25    14    16   ar
    26    15    24    1
    27    16    25    1
    28    17    19   ar
    29    17    26    1
    30    18    21   ar
    31    18    27    1
    32    19    20   ar
    33    20    21   ar
    34    21    28    1
