@<TRIPOS>MOLECULE
IMPHY013112
 94 99 0 0 0
SMALL
GASTEIGER

@<TRIPOS>ATOM
      1 O           6.8779   -3.6913    0.0000 O.3     1  UNL1       -0.3366
      2 O           5.1459   -1.6913    0.0000 O.3     1  UNL1       -0.3313
      3 O           6.0119   -5.1913    0.0000 O.3     1  UNL1       -0.3405
      4 O           6.8779   -1.6913    0.0000 O.3     1  UNL1       -0.4532
      5 O           5.1459   -4.6913    0.0000 O.3     1  UNL1       -0.3863
      6 O           3.4138   -3.6913    0.0000 O.3     1  UNL1       -0.3865
      7 O           8.6100   -4.6913    0.0000 O.3     1  UNL1       -0.3841
      8 O           8.6100   -6.6913    0.0000 O.3     1  UNL1       -0.3864
      9 O           6.8779   -7.6913    0.0000 O.3     1  UNL1       -0.3865
     10 O           5.1396    5.3813    0.0000 O.3     1  UNL1       -0.3313
     11 O           2.5478   -2.1913    0.0000 O.3     1  UNL1       -0.3924
     12 O           4.2799   -6.1913    0.0000 O.3     1  UNL1       -0.3924
     13 O           5.9998    3.8780    0.0000 O.3     1  UNL1       -0.4606
     14 O           2.5357    3.8913    0.0000 O.3     1  UNL1       -0.3864
     15 O           2.5434    5.8913    0.0000 O.3     1  UNL1       -0.3865
     16 O           4.2639    2.8847    0.0000 O.3     1  UNL1       -0.3829
     17 O           7.7440    0.8087    0.0000 O.2     1  UNL1       -0.4507
     18 O           5.1473    7.3813    0.0000 O.3     1  UNL1       -0.3924
     19 O           5.1459   -0.6913    0.0000 O.2     1  UNL1       -0.2830
     20 O           4.2417    0.8056    0.0000 O.3     1  UNL1       -0.5058
     21 O          11.2081   -2.1913    0.0000 O.3     1  UNL1       -0.5068
     22 C           6.0119   -3.1913    0.0000 C.3     1  UNL1        0.1519
     23 C           5.1459   -3.6913    0.0000 C.3     1  UNL1        0.1155
     24 C           4.2799   -3.1913    0.0000 C.3     1  UNL1        0.1120
     25 C           6.8779   -4.6913    0.0000 C.3     1  UNL1        0.1886
     26 C           7.7440   -5.1913    0.0000 C.3     1  UNL1        0.1341
     27 C           6.0119   -2.1913    0.0000 C.3     1  UNL1        0.2315
     28 C           4.2799   -2.1913    0.0000 C.3     1  UNL1        0.1140
     29 C           7.7440   -6.1913    0.0000 C.3     1  UNL1        0.1141
     30 C           6.8779   -6.6913    0.0000 C.3     1  UNL1        0.1119
     31 C           6.0119   -6.1913    0.0000 C.3     1  UNL1        0.1130
     32 C           3.4138   -1.6913    0.0000 C.3     1  UNL1        0.0731
     33 C           5.1459   -6.6913    0.0000 C.3     1  UNL1        0.0730
     34 C           3.4037    4.3880    0.0000 C.3     1  UNL1        0.1152
     35 C           3.4075    5.3880    0.0000 C.3     1  UNL1        0.1120
     36 C           4.2678    3.8846    0.0000 C.3     1  UNL1        0.1454
     37 C           4.2755    5.8846    0.0000 C.3     1  UNL1        0.1140
     38 C           5.1357    4.3813    0.0000 C.3     1  UNL1        0.2308
     39 C           6.8779   -0.6913    0.0000 C.ar    1  UNL1        0.2138
     40 C           4.2793    6.8846    0.0000 C.3     1  UNL1        0.0731
     41 C           7.7440   -0.1913    0.0000 C.ar    1  UNL1        0.1809
     42 C           6.0119   -0.1913    0.0000 C.ar    1  UNL1        0.2382
     43 C           6.0119    0.8087    0.0000 C.ar    1  UNL1        0.1092
     44 C           5.9960    2.8780    0.0000 C.ar    1  UNL1        0.1310
     45 C           6.8779    1.3087    0.0000 C.ar    1  UNL1        0.1465
     46 C           6.8940    2.3502    0.0000 C.ar    1  UNL1        0.0235
     47 C           5.1019    1.3156    0.0000 C.ar    1  UNL1        0.1348
     48 C           8.6100   -0.6913    0.0000 C.ar    1  UNL1        0.0213
     49 C           5.0939    2.3572    0.0000 C.ar    1  UNL1        0.0226
     50 C           8.6100   -1.6913    0.0000 C.ar    1  UNL1       -0.0475
     51 C           9.4760   -0.1913    0.0000 C.ar    1  UNL1       -0.0475
     52 C           9.4760   -2.1913    0.0000 C.ar    1  UNL1       -0.0195
     53 C          10.3420   -0.6913    0.0000 C.ar    1  UNL1       -0.0195
     54 C          10.3420   -1.6913    0.0000 C.ar    1  UNL1        0.1169
     55 H           6.0119   -3.8113    0.0000 H       1  UNL1        0.0687
     56 H           4.6090   -4.0013    0.0000 H       1  UNL1        0.0648
     57 H           3.7429   -2.8813    0.0000 H       1  UNL1        0.0647
     58 H           7.4149   -4.3813    0.0000 H       1  UNL1        0.0938
     59 H           8.2809   -5.5013    0.0000 H       1  UNL1        0.0671
     60 H           6.0119   -1.5713    0.0000 H       1  UNL1        0.1084
     61 H           4.2799   -1.5713    0.0000 H       1  UNL1        0.0647
     62 H           8.2809   -5.8813    0.0000 H       1  UNL1        0.0648
     63 H           7.4149   -7.0013    0.0000 H       1  UNL1        0.0647
     64 H           5.4750   -5.8813    0.0000 H       1  UNL1        0.0647
     65 H           3.8124   -1.2163    0.0000 H       1  UNL1        0.0584
     66 H           3.0153   -1.2163    0.0000 H       1  UNL1        0.0584
     67 H           4.7474   -7.1662    0.0000 H       1  UNL1        0.0584
     68 H           5.5444   -7.1662    0.0000 H       1  UNL1        0.0584
     69 H           4.6090   -5.0013    0.0000 H       1  UNL1        0.2100
     70 H           3.9418    4.6959    0.0000 H       1  UNL1        0.0648
     71 H           2.8694    5.0800    0.0000 H       1  UNL1        0.0647
     72 H           3.7296    3.5767    0.0000 H       1  UNL1        0.0683
     73 H           4.8136    6.1926    0.0000 H       1  UNL1        0.0647
     74 H           3.4138   -4.3113    0.0000 H       1  UNL1        0.2100
     75 H           9.1469   -5.0013    0.0000 H       1  UNL1        0.2101
     76 H           5.1333    3.7613    0.0000 H       1  UNL1        0.1084
     77 H           8.6100   -7.3113    0.0000 H       1  UNL1        0.2100
     78 H           6.3410   -8.0013    0.0000 H       1  UNL1        0.2100
     79 H           4.0695    7.4680    0.0000 H       1  UNL1        0.0584
     80 H           3.6684    6.7793    0.0000 H       1  UNL1        0.0584
     81 H           2.0109   -1.8813    0.0000 H       1  UNL1        0.2095
     82 H           3.7429   -6.5013    0.0000 H       1  UNL1        0.2095
     83 H           2.0000    4.2034    0.0000 H       1  UNL1        0.2100
     84 H           2.5458    6.5113    0.0000 H       1  UNL1        0.2100
     85 H           3.7258    2.5767    0.0000 H       1  UNL1        0.2102
     86 H           7.4345    2.6540    0.0000 H       1  UNL1        0.0691
     87 H           4.5558    2.6651    0.0000 H       1  UNL1        0.0691
     88 H           5.1497    8.0013    0.0000 H       1  UNL1        0.2095
     89 H           8.0730   -2.0013    0.0000 H       1  UNL1        0.0626
     90 H           9.4760    0.4287    0.0000 H       1  UNL1        0.0626
     91 H           3.7012    1.1094    0.0000 H       1  UNL1        0.2922
     92 H           9.4760   -2.8113    0.0000 H       1  UNL1        0.0654
     93 H          10.8790   -0.3813    0.0000 H       1  UNL1        0.0654
     94 H          11.2081   -2.8113    0.0000 H       1  UNL1        0.2921
@<TRIPOS>BOND
     1     1    22    1
     2     1    25    1
     3     2    27    1
     4     2    28    1
     5     3    25    1
     6     3    31    1
     7     4    27    1
     8     4    39    1
     9     5    23    1
    10     5    69    1
    11     6    24    1
    12     6    74    1
    13     7    26    1
    14     7    75    1
    15     8    29    1
    16     8    77    1
    17     9    30    1
    18     9    78    1
    19    10    37    1
    20    10    38    1
    21    11    32    1
    22    11    81    1
    23    12    33    1
    24    12    82    1
    25    13    38    1
    26    13    44    1
    27    14    34    1
    28    14    83    1
    29    15    35    1
    30    15    84    1
    31    16    36    1
    32    16    85    1
    33    17    41   ar
    34    17    45   ar
    35    18    40    1
    36    18    88    1
    37    19    42    2
    38    20    47    1
    39    20    91    1
    40    21    54    1
    41    21    94    1
    42    22    23    1
    43    22    27    1
    44    22    55    1
    45    23    24    1
    46    23    56    1
    47    24    28    1
    48    24    57    1
    49    25    26    1
    50    25    58    1
    51    26    29    1
    52    26    59    1
    53    27    60    1
    54    28    32    1
    55    28    61    1
    56    29    30    1
    57    29    62    1
    58    30    31    1
    59    30    63    1
    60    31    33    1
    61    31    64    1
    62    32    65    1
    63    32    66    1
    64    33    67    1
    65    33    68    1
    66    34    35    1
    67    34    36    1
    68    34    70    1
    69    35    37    1
    70    35    71    1
    71    36    38    1
    72    36    72    1
    73    37    40    1
    74    37    73    1
    75    38    76    1
    76    39    41   ar
    77    39    42   ar
    78    40    79    1
    79    40    80    1
    80    41    48    1
    81    42    43   ar
    82    43    45   ar
    83    43    47   ar
    84    44    46   ar
    85    44    49   ar
    86    45    46   ar
    87    46    86    1
    88    47    49   ar
    89    48    50   ar
    90    48    51   ar
    91    49    87    1
    92    50    52   ar
    93    50    89    1
    94    51    53   ar
    95    51    90    1
    96    52    54   ar
    97    52    92    1
    98    53    54   ar
    99    53    93    1
