@<TRIPOS>MOLECULE
IMPHY013983
 32 33 0 0 0
SMALL
GASTEIGER

@<TRIPOS>ATOM
      1 O           2.8660   -1.0000    0.0000 O.3     1  UNL1       -0.3798
      2 C           5.4641   -0.5000    0.0000 C.3     1  UNL1       -0.0359
      3 C           5.4641    0.5000    0.0000 C.3     1  UNL1       -0.0380
      4 C           4.5981   -1.0000    0.0000 C.3     1  UNL1       -0.0235
      5 C           4.5981    1.0000    0.0000 C.3     1  UNL1       -0.0476
      6 C           6.3580   -1.0347    0.0000 C.3     1  UNL1       -0.0499
      7 C           6.3580    1.0347    0.0000 C.3     1  UNL1       -0.0500
      8 C           3.7320   -0.5000    0.0000 C.3     1  UNL1        0.0586
      9 C           3.7320    0.5000    0.0000 C.3     1  UNL1       -0.0263
     10 C           7.2641   -0.5208    0.0000 C.3     1  UNL1       -0.0528
     11 C           7.2641    0.5208    0.0000 C.3     1  UNL1       -0.0528
     12 C           2.0000   -0.5000    0.0000 C.3     1  UNL1        0.0368
     13 H           5.4593   -1.1200    0.0000 H       1  UNL1        0.0304
     14 H           5.4593    1.1200    0.0000 H       1  UNL1        0.0303
     15 H           4.1996   -1.4750    0.0000 H       1  UNL1        0.0293
     16 H           4.9966   -1.4750    0.0000 H       1  UNL1        0.0293
     17 H           4.9966    1.4750    0.0000 H       1  UNL1        0.0269
     18 H           4.1996    1.4750    0.0000 H       1  UNL1        0.0269
     19 H           5.9534   -1.5044    0.0000 H       1  UNL1        0.0268
     20 H           6.7517   -1.5137    0.0000 H       1  UNL1        0.0268
     21 H           6.7517    1.5137    0.0000 H       1  UNL1        0.0268
     22 H           5.9534    1.5044    0.0000 H       1  UNL1        0.0268
     23 H           3.7320   -1.1200    0.0000 H       1  UNL1        0.0596
     24 H           3.5200    1.0826    0.0000 H       1  UNL1        0.0290
     25 H           3.1215    0.3923    0.0000 H       1  UNL1        0.0290
     26 H           7.4732   -1.1045    0.0000 H       1  UNL1        0.0265
     27 H           7.8750   -0.4147    0.0000 H       1  UNL1        0.0265
     28 H           7.8750    0.4147    0.0000 H       1  UNL1        0.0265
     29 H           7.4732    1.1045    0.0000 H       1  UNL1        0.0265
     30 H           2.3100    0.0369    0.0000 H       1  UNL1        0.0524
     31 H           1.4631   -0.1900    0.0000 H       1  UNL1        0.0524
     32 H           1.6900   -1.0369    0.0000 H       1  UNL1        0.0524
@<TRIPOS>BOND
     1     1     8    1
     2     1    12    1
     3     2     3    1
     4     2     4    1
     5     2     6    1
     6     2    13    1
     7     3     5    1
     8     3     7    1
     9     3    14    1
    10     4     8    1
    11     4    15    1
    12     4    16    1
    13     5     9    1
    14     5    17    1
    15     5    18    1
    16     6    10    1
    17     6    19    1
    18     6    20    1
    19     7    11    1
    20     7    21    1
    21     7    22    1
    22     8     9    1
    23     8    23    1
    24     9    24    1
    25     9    25    1
    26    10    11    1
    27    10    26    1
    28    10    27    1
    29    11    28    1
    30    11    29    1
    31    12    30    1
    32    12    31    1
    33    12    32    1
