@<TRIPOS>MOLECULE
IMPHY012505
 42 47 0 0 0
SMALL
GASTEIGER

@<TRIPOS>ATOM
      1 O           6.2352   -2.7733    0.0000 O.3     1  UNL1       -0.3646
      2 O           8.9116   -2.2348    0.0000 O.3     1  UNL1       -0.3891
      3 O           4.5112    2.3449    0.0000 O.3     1  UNL1       -0.4910
      4 O           2.6079   -0.5280    0.0000 O.3     1  UNL1       -0.4525
      5 O           2.6079    1.1485    0.0000 O.3     1  UNL1       -0.4489
      6 N           7.1256    0.8103    0.0000 N.3     1  UNL1       -0.2941
      7 C           6.2596   -0.6897    0.0000 C.3     1  UNL1        0.0417
      8 C           6.2435   -1.7312    0.0000 C.3     1  UNL1        0.0988
      9 C           7.1256   -0.1897    0.0000 C.3     1  UNL1        0.0253
     10 C           7.1415   -2.2590    0.0000 C.3     1  UNL1        0.1119
     11 C           6.1461   -0.0861    0.0000 C.3     1  UNL1       -0.0266
     12 C           8.0356   -0.6966    0.0000 C.3     1  UNL1       -0.0077
     13 C           8.0436   -1.7382    0.0000 C.3     1  UNL1        0.0852
     14 C           5.3935   -0.1897    0.0000 C.ar    1  UNL1       -0.0256
     15 C           6.5462    0.6067    0.0000 C.3     1  UNL1        0.0005
     16 C           6.2596    1.3103    0.0000 C.3     1  UNL1        0.0282
     17 C           5.3935    0.8103    0.0000 C.ar    1  UNL1        0.0160
     18 C           4.4996   -0.7244    0.0000 C.ar    1  UNL1       -0.0118
     19 C           4.4996    1.3449    0.0000 C.ar    1  UNL1        0.1700
     20 C           3.5935   -0.2106    0.0000 C.ar    1  UNL1        0.1702
     21 C           3.5935    0.8311    0.0000 C.ar    1  UNL1        0.2078
     22 C           2.0000    0.3103    0.0000 C.3     1  UNL1        0.2334
     23 C           3.6510    2.8548    0.0000 C.3     1  UNL1        0.0790
     24 H           5.6235   -1.7240    0.0000 H       1  UNL1        0.0632
     25 H           7.8617    0.2353    0.0000 H       1  UNL1        0.0473
     26 H           7.4495   -2.7971    0.0000 H       1  UNL1        0.0648
     27 H           5.7190    0.3632    0.0000 H       1  UNL1        0.0287
     28 H           5.5942   -0.3685    0.0000 H       1  UNL1        0.0287
     29 H           8.6472   -0.7980    0.0000 H       1  UNL1        0.0306
     30 H           8.2401   -0.1113    0.0000 H       1  UNL1        0.0306
     31 H           8.0448   -2.3582    0.0000 H       1  UNL1        0.0620
     32 H           6.5147    1.2259    0.0000 H       1  UNL1        0.0427
     33 H           5.9434    0.7519    0.0000 H       1  UNL1        0.0427
     34 H           6.6581    1.7852    0.0000 H       1  UNL1        0.0477
     35 H           5.8610    1.7852    0.0000 H       1  UNL1        0.0477
     36 H           4.5068   -1.3444    0.0000 H       1  UNL1        0.0658
     37 H           8.9139   -2.8548    0.0000 H       1  UNL1        0.2099
     38 H           1.5391    0.7250    0.0000 H       1  UNL1        0.1166
     39 H           1.5391   -0.1045    0.0000 H       1  UNL1        0.1166
     40 H           3.9672    3.3882    0.0000 H       1  UNL1        0.0660
     41 H           3.1176    3.1710    0.0000 H       1  UNL1        0.0660
     42 H           3.3348    2.3215    0.0000 H       1  UNL1        0.0660
@<TRIPOS>BOND
     1     8     1    1
     2    10     1    1
     3    13     2    1
     4     2    37    1
     5     3    19    1
     6     3    23    1
     7     4    20    1
     8     4    22    1
     9     5    21    1
    10     5    22    1
    11     6     9    1
    12     6    15    1
    13     6    16    1
    14     7     8    1
    15     7     9    1
    16     7    11    1
    17     7    14    1
    18     8    10    1
    19     8    24    1
    20     9    12    1
    21     9    25    1
    22    10    13    1
    23    10    26    1
    24    11    15    1
    25    11    27    1
    26    11    28    1
    27    12    13    1
    28    12    29    1
    29    12    30    1
    30    13    31    1
    31    14    17   ar
    32    14    18   ar
    33    15    32    1
    34    15    33    1
    35    16    17    1
    36    16    34    1
    37    16    35    1
    38    17    19   ar
    39    18    20   ar
    40    18    36    1
    41    19    21   ar
    42    20    21   ar
    43    22    38    1
    44    22    39    1
    45    23    40    1
    46    23    41    1
    47    23    42    1
