@<TRIPOS>MOLECULE
IMPHY016538
 40 40 0 0 0
SMALL
GASTEIGER

@<TRIPOS>ATOM
      1 O           2.0000   -3.6900    0.0000 O.3     1  UNL1       -0.3907
      2 C           2.8660   -0.1900    0.0000 C.3     1  UNL1       -0.0164
      3 C           2.0000   -0.6900    0.0000 C.3     1  UNL1       -0.0425
      4 C           3.7320   -0.6900    0.0000 C.3     1  UNL1       -0.0279
      5 C           2.0000   -1.6900    0.0000 C.3     1  UNL1       -0.0291
      6 C           2.8660    0.8100    0.0000 C.2     1  UNL1       -0.0729
      7 C           2.8660   -2.1900    0.0000 C.2     1  UNL1       -0.0484
      8 C           3.7320   -1.6900    0.0000 C.2     1  UNL1       -0.0821
      9 C           3.7320    1.3100    0.0000 C.3     1  UNL1       -0.0283
     10 C           2.8660   -3.1900    0.0000 C.3     1  UNL1        0.0653
     11 C           3.7320    2.3100    0.0000 C.3     1  UNL1       -0.0308
     12 C           2.0000    1.3100    0.0000 C.2     1  UNL1       -0.0992
     13 C           4.5981    2.8100    0.0000 C.2     1  UNL1       -0.0850
     14 C           4.5981    3.8100    0.0000 C.2     1  UNL1       -0.0796
     15 C           5.4641    4.3100    0.0000 C.3     1  UNL1       -0.0440
     16 C           3.7320    4.3100    0.0000 C.3     1  UNL1       -0.0440
     17 H           3.4030    0.1200    0.0000 H       1  UNL1        0.0349
     18 H           1.7880   -0.1074    0.0000 H       1  UNL1        0.0274
     19 H           1.3894   -0.7977    0.0000 H       1  UNL1        0.0274
     20 H           4.3426   -0.7977    0.0000 H       1  UNL1        0.0313
     21 H           3.9441   -0.1074    0.0000 H       1  UNL1        0.0313
     22 H           1.3894   -1.5823    0.0000 H       1  UNL1        0.0311
     23 H           1.7880   -2.2726    0.0000 H       1  UNL1        0.0311
     24 H           4.2690   -2.0000    0.0000 H       1  UNL1        0.0573
     25 H           3.9441    0.7274    0.0000 H       1  UNL1        0.0313
     26 H           4.3426    1.4177    0.0000 H       1  UNL1        0.0313
     27 H           3.0781   -3.7726    0.0000 H       1  UNL1        0.0604
     28 H           3.4766   -3.0823    0.0000 H       1  UNL1        0.0604
     29 H           3.5200    2.8926    0.0000 H       1  UNL1        0.0310
     30 H           3.1215    2.2023    0.0000 H       1  UNL1        0.0310
     31 H           2.0000    1.9300    0.0000 H       1  UNL1        0.0534
     32 H           1.4631    1.0000    0.0000 H       1  UNL1        0.0534
     33 H           5.1350    2.5000    0.0000 H       1  UNL1        0.0572
     34 H           2.0000   -4.3100    0.0000 H       1  UNL1        0.2098
     35 H           5.7741    3.7731    0.0000 H       1  UNL1        0.0274
     36 H           6.0010    4.6200    0.0000 H       1  UNL1        0.0274
     37 H           5.1541    4.8469    0.0000 H       1  UNL1        0.0274
     38 H           4.0420    4.8469    0.0000 H       1  UNL1        0.0274
     39 H           3.1951    4.6200    0.0000 H       1  UNL1        0.0274
     40 H           3.4220    3.7731    0.0000 H       1  UNL1        0.0274
@<TRIPOS>BOND
     1     1    10    1
     2     1    34    1
     3     2     3    1
     4     2     4    1
     5     2     6    1
     6     2    17    1
     7     3     5    1
     8     3    18    1
     9     3    19    1
    10     4     8    1
    11     4    20    1
    12     4    21    1
    13     5     7    1
    14     5    22    1
    15     5    23    1
    16     6     9    1
    17     6    12    2
    18     7     8    2
    19     7    10    1
    20     8    24    1
    21     9    11    1
    22     9    25    1
    23     9    26    1
    24    10    27    1
    25    10    28    1
    26    11    13    1
    27    11    29    1
    28    11    30    1
    29    12    31    1
    30    12    32    1
    31    13    14    2
    32    13    33    1
    33    14    15    1
    34    14    16    1
    35    15    35    1
    36    15    36    1
    37    15    37    1
    38    16    38    1
    39    16    39    1
    40    16    40    1
