@<TRIPOS>MOLECULE
IMPHY016927
 23 22 0 0 0
SMALL
GASTEIGER
****
Copyright by the U.S. Sec. Commerce on behalf of U.S.A. All rights reserved.
@<TRIPOS>ATOM
      1 C          16.4535    0.5001    0.0000 C.2     1  UNL1        0.3412
      2 C          15.5875    0.0000    0.0000 C.2     1  UNL1        0.0773
      3 C          14.7216    0.5001    0.0000 C.2     1  UNL1       -0.0195
      4 C          13.8556    0.0000    0.0000 C.3     1  UNL1        0.0262
      5 C          12.9896    0.5001    0.0000 C.3     1  UNL1        0.0047
      6 C          12.1236    0.0000    0.0000 C.3     1  UNL1        0.0003
      7 C          11.2577    0.5001    0.0000 C.3     1  UNL1        0.0000
      8 C          10.3917    0.0000    0.0000 C.3     1  UNL1        0.0000
      9 C           9.5257    0.5001    0.0000 C.3     1  UNL1        0.0000
     10 C           8.6598    0.0000    0.0000 C.3     1  UNL1        0.0000
     11 C           7.7938    0.5001    0.0000 C.3     1  UNL1        0.0000
     12 C           6.9278    0.0000    0.0000 C.3     1  UNL1        0.0000
     13 C           6.0619    0.5001    0.0000 C.3     1  UNL1        0.0000
     14 C           5.1958    0.0000    0.0000 C.3     1  UNL1        0.0000
     15 C           4.3298    0.5001    0.0000 C.3     1  UNL1        0.0000
     16 C           3.4638    0.0000    0.0000 C.3     1  UNL1        0.0000
     17 C           2.5979    0.5001    0.0000 C.3     1  UNL1        0.0000
     18 C           1.7319    0.0000    0.0000 C.3     1  UNL1        0.0000
     19 C           0.8659    0.5001    0.0000 C.3     1  UNL1        0.0000
     20 C           0.0000    0.0000    0.0000 C.3     1  UNL1        0.0000
     21 O          16.4535    1.5000    0.0000 O.2     1  UNL1       -0.2449
     22 O          17.3196    0.0000    0.0000 O.3     1  UNL1       -0.4413
     23 C          18.1854    0.5001    0.0000 C.3     1  UNL1        0.2560
@<TRIPOS>BOND
     1     1     2    1
     2     1    21    2
     3     1    22    1
     4     2     3    2
     5     3     4    1
     6     4     5    1
     7     5     6    1
     8     6     7    1
     9     7     8    1
    10     8     9    1
    11     9    10    1
    12    10    11    1
    13    11    12    1
    14    12    13    1
    15    13    14    1
    16    14    15    1
    17    15    16    1
    18    16    17    1
    19    17    18    1
    20    18    19    1
    21    19    20    1
    22    22    23    1
