@<TRIPOS>MOLECULE
IMPHY015442
 35 34 0 0 0
SMALL
GASTEIGER

@<TRIPOS>ATOM
      1 O           6.3301    1.0000    0.0000 O.3     1  UNL1       -0.4615
      2 O           7.1962   -0.5000    0.0000 O.2     1  UNL1       -0.2512
      3 C           4.5981    1.0000    0.0000 C.3     1  UNL1       -0.0154
      4 C           5.4641    0.5000    0.0000 C.3     1  UNL1        0.1031
      5 C           3.7320    0.5000    0.0000 C.3     1  UNL1       -0.0474
      6 C           2.8660    1.0000    0.0000 C.3     1  UNL1       -0.0466
      7 C           5.4641   -0.5000    0.0000 C.3     1  UNL1       -0.0159
      8 C           4.5981   -1.0000    0.0000 C.3     1  UNL1       -0.0526
      9 C           2.0000    0.5000    0.0000 C.3     1  UNL1       -0.0627
     10 C           2.8660    2.0000    0.0000 C.3     1  UNL1       -0.0627
     11 C           4.5981   -2.0000    0.0000 C.3     1  UNL1       -0.0652
     12 C           7.1962    0.5000    0.0000 C.2     1  UNL1        0.3042
     13 C           8.0622    1.0000    0.0000 C.3     1  UNL1        0.0332
     14 H           4.9966    1.4750    0.0000 H       1  UNL1        0.0301
     15 H           4.1996    1.4750    0.0000 H       1  UNL1        0.0301
     16 H           5.4641    1.1200    0.0000 H       1  UNL1        0.0734
     17 H           3.3335    0.0251    0.0000 H       1  UNL1        0.0269
     18 H           4.1306    0.0251    0.0000 H       1  UNL1        0.0269
     19 H           2.8660    0.3800    0.0000 H       1  UNL1        0.0295
     20 H           5.6762   -1.0826    0.0000 H       1  UNL1        0.0301
     21 H           6.0747   -0.3923    0.0000 H       1  UNL1        0.0301
     22 H           4.3860   -0.4174    0.0000 H       1  UNL1        0.0264
     23 H           3.9875   -1.1077    0.0000 H       1  UNL1        0.0264
     24 H           1.6900    1.0369    0.0000 H       1  UNL1        0.0232
     25 H           1.4631    0.1900    0.0000 H       1  UNL1        0.0232
     26 H           2.3100   -0.0369    0.0000 H       1  UNL1        0.0232
     27 H           3.4860    2.0000    0.0000 H       1  UNL1        0.0232
     28 H           2.8660    2.6200    0.0000 H       1  UNL1        0.0232
     29 H           2.2460    2.0000    0.0000 H       1  UNL1        0.0232
     30 H           3.9781   -2.0000    0.0000 H       1  UNL1        0.0230
     31 H           4.5981   -2.6200    0.0000 H       1  UNL1        0.0230
     32 H           5.2181   -2.0000    0.0000 H       1  UNL1        0.0230
     33 H           8.3722    0.4631    0.0000 H       1  UNL1        0.0342
     34 H           8.5991    1.3100    0.0000 H       1  UNL1        0.0342
     35 H           7.7522    1.5369    0.0000 H       1  UNL1        0.0342
@<TRIPOS>BOND
     1     1     4    1
     2     1    12    1
     3     2    12    2
     4     3     4    1
     5     3     5    1
     6     3    14    1
     7     3    15    1
     8     4     7    1
     9     4    16    1
    10     5     6    1
    11     5    17    1
    12     5    18    1
    13     6     9    1
    14     6    10    1
    15     6    19    1
    16     7     8    1
    17     7    20    1
    18     7    21    1
    19     8    11    1
    20     8    22    1
    21     8    23    1
    22     9    24    1
    23     9    25    1
    24     9    26    1
    25    10    27    1
    26    10    28    1
    27    10    29    1
    28    11    30    1
    29    11    31    1
    30    11    32    1
    31    12    13    1
    32    13    33    1
    33    13    34    1
    34    13    35    1
