@<TRIPOS>MOLECULE
IMPHY005822
 33 35 0 0 0
SMALL
GASTEIGER

@<TRIPOS>ATOM
      1 O           5.5301   -1.1633    0.0000 O.2     1  UNL1       -0.4542
      2 O           2.0000    0.8608    0.0000 O.3     1  UNL1       -0.4914
      3 O           2.0000   -1.1875    0.0000 O.3     1  UNL1       -0.4913
      4 O           5.5301    1.8367    0.0000 O.2     1  UNL1       -0.2863
      5 O           7.2785    1.8713    0.0000 O.3     1  UNL1       -0.5058
      6 O           9.0602   -1.1875    0.0000 O.3     1  UNL1       -0.5065
      7 C           4.6641    0.3367    0.0000 C.ar    1  UNL1        0.0684
      8 C           6.3961    0.3367    0.0000 C.ar    1  UNL1        0.1061
      9 C           4.6641   -0.6633    0.0000 C.ar    1  UNL1        0.1430
     10 C           6.3961   -0.6633    0.0000 C.ar    1  UNL1        0.1463
     11 C           5.5301    0.8367    0.0000 C.ar    1  UNL1        0.2038
     12 C           3.7702    0.8713    0.0000 C.ar    1  UNL1       -0.0019
     13 C           3.7702   -1.1980    0.0000 C.ar    1  UNL1        0.0267
     14 C           2.8641    0.3575    0.0000 C.ar    1  UNL1        0.1624
     15 C           7.2901    0.8713    0.0000 C.ar    1  UNL1        0.1347
     16 C           2.8641   -0.6841    0.0000 C.ar    1  UNL1        0.1650
     17 C           7.2901   -1.1980    0.0000 C.ar    1  UNL1        0.0231
     18 C           8.1962    0.3575    0.0000 C.ar    1  UNL1        0.0223
     19 C           8.1962   -0.6841    0.0000 C.ar    1  UNL1        0.1239
     20 C           2.0038    1.8608    0.0000 C.3     1  UNL1        0.0790
     21 C           2.0038   -2.1875    0.0000 C.3     1  UNL1        0.0790
     22 H           3.7773    1.4913    0.0000 H       1  UNL1        0.0663
     23 H           3.7773   -1.8179    0.0000 H       1  UNL1        0.0692
     24 H           7.2829   -1.8179    0.0000 H       1  UNL1        0.0691
     25 H           8.7319    0.6696    0.0000 H       1  UNL1        0.0691
     26 H           7.8118    2.1875    0.0000 H       1  UNL1        0.2922
     27 H           2.6238    1.8584    0.0000 H       1  UNL1        0.0660
     28 H           2.0062    2.4808    0.0000 H       1  UNL1        0.0660
     29 H           1.3839    1.8632    0.0000 H       1  UNL1        0.0660
     30 H           1.3839   -2.1898    0.0000 H       1  UNL1        0.0660
     31 H           2.0062   -2.8075    0.0000 H       1  UNL1        0.0660
     32 H           2.6238   -2.1851    0.0000 H       1  UNL1        0.0660
     33 H           9.5984   -0.8795    0.0000 H       1  UNL1        0.2921
@<TRIPOS>BOND
     1     1     9   ar
     2     1    10   ar
     3     2    14    1
     4     2    20    1
     5     3    16    1
     6     3    21    1
     7     4    11    2
     8     5    15    1
     9     5    26    1
    10     6    19    1
    11     6    33    1
    12     7     9   ar
    13     7    11   ar
    14     7    12   ar
    15     8    10   ar
    16     8    11   ar
    17     8    15   ar
    18     9    13   ar
    19    10    17   ar
    20    12    14   ar
    21    12    22    1
    22    13    16   ar
    23    13    23    1
    24    14    16   ar
    25    15    18   ar
    26    17    19   ar
    27    17    24    1
    28    18    19   ar
    29    18    25    1
    30    20    27    1
    31    20    28    1
    32    20    29    1
    33    21    30    1
    34    21    31    1
    35    21    32    1
