@<TRIPOS>MOLECULE
IMPHY010804
 24 26 0 0 0
SMALL
GASTEIGER

@<TRIPOS>ATOM
      1 C           5.7695   -1.9908    0.0000 C.3     1  UNL1        0.0309
      2 C           6.9107   -1.3314    0.0000 C.3     1  UNL1        0.0345
      3 C           8.0773   -1.9908    0.0000 C.2     1  UNL1        0.0232
      4 C           9.2185   -1.3314    0.0000 C.2     1  UNL1        0.2255
      5 C          10.3724   -1.9908    0.0000 C.2     1  UNL1        0.1802
      6 C          10.3724   -3.3222    0.0000 C.2     1  UNL1        0.0822
      7 C           9.2185   -3.9816    0.0000 C.2     1  UNL1        0.1986
      8 C           8.0773   -3.3222    0.0000 C.2     1  UNL1        0.0380
      9 C           6.9107   -3.9816    0.0000 C.ar    1  UNL1       -0.0012
     10 C           5.7695   -3.3222    0.0000 C.ar    1  UNL1       -0.0223
     11 C           4.6029   -3.9816    0.0000 C.ar    1  UNL1        0.0172
     12 C           4.6029   -5.3257    0.0000 C.ar    1  UNL1        0.1917
     13 C           5.7695   -5.9851    0.0000 C.ar    1  UNL1        0.0417
     14 C           6.9107   -5.3257    0.0000 C.ar    1  UNL1        0.0030
     15 O           9.2185    0.0000    0.0000 O.2     1  UNL1       -0.2837
     16 O          11.5263   -1.3314    0.0000 O.2     1  UNL1       -0.4681
     17 C          12.6802   -1.9908    0.0000 C.3     1  UNL1        0.2526
     18 O           9.2185   -5.3257    0.0000 O.2     1  UNL1       -0.2865
     19 C           3.4617   -3.3222    0.0000 C.3     1  UNL1        0.0546
     20 C           2.3078   -3.9816    0.0000 C.2     1  UNL1       -0.0298
     21 C           1.1539   -3.3222    0.0000 C.2     1  UNL1       -0.0475
     22 C           0.0000   -3.9816    0.0000 C.3     1  UNL1        0.0260
     23 O           3.4617   -5.9851    0.0000 O.3     1  UNL1       -0.2869
     24 C           1.1539   -1.9908    0.0000 C.3     1  UNL1        0.0260
@<TRIPOS>BOND
     1     1     2    1
     2     1    10    1
     3     2     3    1
     4     3     4    1
     5     3     8    2
     6     4     5    1
     7     4    15    2
     8     5     6    2
     9     5    16    1
    10     6     7    1
    11     7     8    1
    12     7    18    2
    13     8     9    1
    14     9    10   ar
    15     9    14   ar
    16    10    11   ar
    17    11    12   ar
    18    11    19    1
    19    12    13   ar
    20    12    23    1
    21    13    14   ar
    22    16    17    1
    23    19    20    1
    24    20    21    2
    25    21    22    1
    26    21    24    1
