@<TRIPOS>MOLECULE
IMPHY002484
 59 63 0 0 0
SMALL
GASTEIGER

@<TRIPOS>ATOM
      1 O           6.6750   -0.9424    0.0000 O.3     1  UNL1       -0.3621
      2 O           5.5009    2.5697    0.0000 O.3     1  UNL1       -0.4606
      3 O           3.5000   -0.7207    0.0000 O.3     1  UNL1       -0.4642
      4 O           6.8660   -3.4323    0.0000 O.3     1  UNL1       -0.4616
      5 O           3.9695    3.4323    0.0000 O.2     1  UNL1       -0.2502
      6 O           8.6261   -3.1536    0.0000 O.2     1  UNL1       -0.2507
      7 O           3.5001   -2.4528    0.0000 O.2     1  UNL1       -0.2512
      8 C           5.0000    0.1453    0.0000 C.3     1  UNL1        0.0413
      9 C           5.8660   -0.3547    0.0000 C.3     1  UNL1        0.0822
     10 C           5.0000    1.1453    0.0000 C.3     1  UNL1        0.0230
     11 C           4.1060    1.6800    0.0000 C.3     1  UNL1        0.0718
     12 C           5.8660    1.6453    0.0000 C.3     1  UNL1        0.1079
     13 C           6.7320    0.1453    0.0000 C.3     1  UNL1       -0.0107
     14 C           4.1060   -0.3893    0.0000 C.3     1  UNL1       -0.0412
     15 C           6.7320    1.1453    0.0000 C.3     1  UNL1       -0.0101
     16 C           5.0570   -0.9424    0.0000 C.3     1  UNL1       -0.0201
     17 C           3.2000    1.1662    0.0000 C.3     1  UNL1       -0.0371
     18 C           4.5001   -0.7208    0.0000 C.3     1  UNL1        0.1011
     19 C           3.2000    0.1245    0.0000 C.3     1  UNL1       -0.0513
     20 C           6.3660   -1.8935    0.0000 C.3     1  UNL1        0.1142
     21 C           5.3660   -1.8935    0.0000 C.3     1  UNL1       -0.0173
     22 C           4.5073    2.5892    0.0000 C.2     1  UNL1        0.3137
     23 C           3.6161    2.5518    0.0000 C.3     1  UNL1       -0.0490
     24 C           7.5981   -0.3547    0.0000 C.3     1  UNL1       -0.0597
     25 C           7.3660   -1.8935    0.0000 C.3     1  UNL1        0.0772
     26 C           6.0570   -2.8446    0.0000 C.3     1  UNL1        0.1219
     27 C           7.6750   -2.8446    0.0000 C.2     1  UNL1        0.3101
     28 C           3.0000   -1.5868    0.0000 C.2     1  UNL1        0.3040
     29 C           2.0000   -1.5867    0.0000 C.3     1  UNL1        0.0332
     30 H           4.2639    0.7203    0.0000 H       1  UNL1        0.0354
     31 H           6.5097    2.2005    0.0000 H       1  UNL1        0.0737
     32 H           6.7320   -0.4747    0.0000 H       1  UNL1        0.0327
     33 H           3.7124   -0.8683    0.0000 H       1  UNL1        0.0273
     34 H           4.5106   -0.8591    0.0000 H       1  UNL1        0.0273
     35 H           7.3426    1.0377    0.0000 H       1  UNL1        0.0304
     36 H           6.9441    1.7280    0.0000 H       1  UNL1        0.0304
     37 H           4.7470   -0.4055    0.0000 H       1  UNL1        0.0294
     38 H           4.4906   -1.1946    0.0000 H       1  UNL1        0.0294
     39 H           2.9909    1.7498    0.0000 H       1  UNL1        0.0276
     40 H           2.5891    1.0601    0.0000 H       1  UNL1        0.0276
     41 H           4.3925   -1.3313    0.0000 H       1  UNL1        0.0704
     42 H           5.0828   -0.9328    0.0000 H       1  UNL1        0.0704
     43 H           2.5891    0.2306    0.0000 H       1  UNL1        0.0266
     44 H           2.9909   -0.4592    0.0000 H       1  UNL1        0.0266
     45 H           4.7596   -2.0224    0.0000 H       1  UNL1        0.0295
     46 H           5.4308   -2.5101    0.0000 H       1  UNL1        0.0295
     47 H           4.1566    2.8555    0.0000 H       1  UNL1        0.0240
     48 H           3.3123    3.0922    0.0000 H       1  UNL1        0.0240
     49 H           3.0756    2.2480    0.0000 H       1  UNL1        0.0240
     50 H           7.2881   -0.8916    0.0000 H       1  UNL1        0.0233
     51 H           8.1350   -0.6647    0.0000 H       1  UNL1        0.0233
     52 H           7.9081    0.1823    0.0000 H       1  UNL1        0.0233
     53 H           7.9725   -1.7646    0.0000 H       1  UNL1        0.0407
     54 H           7.3012   -1.2769    0.0000 H       1  UNL1        0.0407
     55 H           5.4906   -2.5924    0.0000 H       1  UNL1        0.0727
     56 H           5.7470   -3.3815    0.0000 H       1  UNL1        0.0727
     57 H           2.0000   -0.9667    0.0000 H       1  UNL1        0.0342
     58 H           1.3800   -1.5867    0.0000 H       1  UNL1        0.0342
     59 H           2.0000   -2.2067    0.0000 H       1  UNL1        0.0342
@<TRIPOS>BOND
     1     9     1    1
     2    20     1    1
     3     2    12    1
     4     2    22    1
     5     3    18    1
     6     3    28    1
     7     4    26    1
     8     4    27    1
     9     5    22    2
    10     6    27    2
    11     7    28    2
    12     8     9    1
    13     8    10    1
    14     8    14    1
    15     8    18    1
    16     9    13    1
    17     9    16    1
    18    10    11    1
    19    10    12    1
    20    10    30    1
    21    11    17    1
    22    11    22    1
    23    11    23    1
    24    12    15    1
    25    12    31    1
    26    13    15    1
    27    13    24    1
    28    13    32    1
    29    14    19    1
    30    14    33    1
    31    14    34    1
    32    15    35    1
    33    15    36    1
    34    16    21    1
    35    16    37    1
    36    16    38    1
    37    17    19    1
    38    17    39    1
    39    17    40    1
    40    18    41    1
    41    18    42    1
    42    19    43    1
    43    19    44    1
    44    20    21    1
    45    20    25    1
    46    20    26    1
    47    21    45    1
    48    21    46    1
    49    23    47    1
    50    23    48    1
    51    23    49    1
    52    24    50    1
    53    24    51    1
    54    24    52    1
    55    25    27    1
    56    25    53    1
    57    25    54    1
    58    26    55    1
    59    26    56    1
    60    28    29    1
    61    29    57    1
    62    29    58    1
    63    29    59    1
