@<TRIPOS>MOLECULE
IMPHY001308
 51 51 0 0 0
SMALL
GASTEIGER

@<TRIPOS>ATOM
      1 O           8.1962    4.4400    0.0000 O.3     1  UNL1       -0.3910
      2 C           3.0000   -3.5600    0.0000 C.3     1  UNL1       -0.0099
      3 C           3.0000   -4.5600    0.0000 C.3     1  UNL1       -0.0436
      4 C           3.8660   -5.0600    0.0000 C.3     1  UNL1       -0.0486
      5 C           3.8660   -3.0600    0.0000 C.2     1  UNL1       -0.0427
      6 C           4.7320   -4.5600    0.0000 C.3     1  UNL1       -0.0314
      7 C           4.7320   -3.5600    0.0000 C.2     1  UNL1       -0.0689
      8 C           2.0000   -3.5600    0.0000 C.3     1  UNL1       -0.0558
      9 C           2.5000   -2.6940    0.0000 C.3     1  UNL1       -0.0558
     10 C           3.8660   -2.0600    0.0000 C.2     1  UNL1       -0.0579
     11 C           5.5981   -3.0600    0.0000 C.3     1  UNL1       -0.0432
     12 C           4.7320   -1.5600    0.0000 C.2     1  UNL1       -0.0586
     13 C           4.7320   -0.5600    0.0000 C.2     1  UNL1       -0.0504
     14 C           3.8660   -0.0600    0.0000 C.3     1  UNL1       -0.0397
     15 C           5.5981   -0.0600    0.0000 C.2     1  UNL1       -0.0588
     16 C           5.5981    0.9400    0.0000 C.2     1  UNL1       -0.0613
     17 C           6.4641    1.4400    0.0000 C.2     1  UNL1       -0.0591
     18 C           6.4641    2.4400    0.0000 C.2     1  UNL1       -0.0522
     19 C           5.5981    2.9400    0.0000 C.3     1  UNL1       -0.0399
     20 C           7.3301    2.9400    0.0000 C.2     1  UNL1       -0.0560
     21 C           7.3301    3.9400    0.0000 C.3     1  UNL1        0.0629
     22 H           2.3894   -4.4523    0.0000 H       1  UNL1        0.0274
     23 H           2.7880   -5.1426    0.0000 H       1  UNL1        0.0274
     24 H           3.4675   -5.5350    0.0000 H       1  UNL1        0.0269
     25 H           4.2646   -5.5350    0.0000 H       1  UNL1        0.0269
     26 H           4.9441   -5.1426    0.0000 H       1  UNL1        0.0310
     27 H           5.3426   -4.4523    0.0000 H       1  UNL1        0.0310
     28 H           2.0000   -2.9400    0.0000 H       1  UNL1        0.0238
     29 H           1.3800   -3.5600    0.0000 H       1  UNL1        0.0238
     30 H           2.0000   -4.1800    0.0000 H       1  UNL1        0.0238
     31 H           3.0369   -2.3840    0.0000 H       1  UNL1        0.0238
     32 H           2.1900   -2.1570    0.0000 H       1  UNL1        0.0238
     33 H           1.9631   -3.0040    0.0000 H       1  UNL1        0.0238
     34 H           3.3291   -1.7500    0.0000 H       1  UNL1        0.0621
     35 H           5.9081   -3.5969    0.0000 H       1  UNL1        0.0275
     36 H           6.1350   -2.7500    0.0000 H       1  UNL1        0.0275
     37 H           5.2881   -2.5231    0.0000 H       1  UNL1        0.0275
     38 H           5.2690   -1.8700    0.0000 H       1  UNL1        0.0620
     39 H           4.1760    0.4769    0.0000 H       1  UNL1        0.0278
     40 H           3.3291    0.2500    0.0000 H       1  UNL1        0.0278
     41 H           3.5560   -0.5969    0.0000 H       1  UNL1        0.0278
     42 H           6.1350   -0.3700    0.0000 H       1  UNL1        0.0620
     43 H           5.0611    1.2500    0.0000 H       1  UNL1        0.0618
     44 H           7.0010    1.1300    0.0000 H       1  UNL1        0.0620
     45 H           5.9081    3.4769    0.0000 H       1  UNL1        0.0277
     46 H           5.0611    3.2500    0.0000 H       1  UNL1        0.0277
     47 H           5.2881    2.4031    0.0000 H       1  UNL1        0.0277
     48 H           7.8671    2.6300    0.0000 H       1  UNL1        0.0597
     49 H           7.1181    4.5226    0.0000 H       1  UNL1        0.0601
     50 H           6.7196    3.8323    0.0000 H       1  UNL1        0.0601
     51 H           8.1962    5.0600    0.0000 H       1  UNL1        0.2098
@<TRIPOS>BOND
     1     1    21    1
     2     1    51    1
     3     2     3    1
     4     2     5    1
     5     2     8    1
     6     2     9    1
     7     3     4    1
     8     3    22    1
     9     3    23    1
    10     4     6    1
    11     4    24    1
    12     4    25    1
    13     5     7    2
    14     5    10    1
    15     6     7    1
    16     6    26    1
    17     6    27    1
    18     7    11    1
    19     8    28    1
    20     8    29    1
    21     8    30    1
    22     9    31    1
    23     9    32    1
    24     9    33    1
    25    10    12    2
    26    10    34    1
    27    11    35    1
    28    11    36    1
    29    11    37    1
    30    12    13    1
    31    12    38    1
    32    13    14    1
    33    13    15    2
    34    14    39    1
    35    14    40    1
    36    14    41    1
    37    15    16    1
    38    15    42    1
    39    16    17    2
    40    16    43    1
    41    17    18    1
    42    17    44    1
    43    18    19    1
    44    18    20    2
    45    19    45    1
    46    19    46    1
    47    19    47    1
    48    20    21    1
    49    20    48    1
    50    21    49    1
    51    21    50    1
