@<TRIPOS>MOLECULE
IMPHY016604
 37 39 0 0 0
SMALL
GASTEIGER

@<TRIPOS>ATOM
      1 C           4.5772   -0.5146    0.0000 C.3     1  UNL1        0.0038
      2 C           4.6841    0.6621    0.0000 C.3     1  UNL1       -0.0222
      3 C           4.0772    1.6760    0.0000 C.3     1  UNL1       -0.0345
      4 C           3.6763   -0.0807    0.0000 C.3     1  UNL1       -0.0063
      5 C           5.4782   -0.0807    0.0000 C.3     1  UNL1       -0.0337
      6 C           3.4538    0.8942    0.0000 C.3     1  UNL1       -0.0420
      7 C           5.0772    1.6760    0.0000 C.3     1  UNL1       -0.0494
      8 C           5.7007    0.8942    0.0000 C.3     1  UNL1       -0.0494
      9 C           4.4413   -1.4994    0.0000 C.2     1  UNL1       -0.0762
     10 C           5.5796    1.3836    0.0000 C.3     1  UNL1       -0.0587
     11 C           5.8040    0.4007    0.0000 C.3     1  UNL1       -0.0587
     12 C           2.9912   -0.8010    0.0000 C.2     1  UNL1       -0.0508
     13 C           6.2600   -0.7042    0.0000 C.3     1  UNL1       -0.0616
     14 C           3.4630   -1.6760    0.0000 C.2     1  UNL1       -0.0622
     15 C           2.0000   -0.6685    0.0000 C.2     1  UNL1       -0.0952
     16 H           3.8082    2.2346    0.0000 H       1  UNL1        0.0306
     17 H           3.0784    0.0834    0.0000 H       1  UNL1        0.0357
     18 H           5.4088   -0.6968    0.0000 H       1  UNL1        0.0307
     19 H           3.0672    1.3789    0.0000 H       1  UNL1        0.0274
     20 H           2.8952    0.6252    0.0000 H       1  UNL1        0.0274
     21 H           5.6358    1.9450    0.0000 H       1  UNL1        0.0268
     22 H           4.9393    2.2805    0.0000 H       1  UNL1        0.0268
     23 H           6.2593    0.6252    0.0000 H       1  UNL1        0.0268
     24 H           6.0873    1.3789    0.0000 H       1  UNL1        0.0268
     25 H           4.8886   -1.9286    0.0000 H       1  UNL1        0.0578
     26 H           5.9686    0.9008    0.0000 H       1  UNL1        0.0235
     27 H           6.0624    1.7726    0.0000 H       1  UNL1        0.0235
     28 H           5.1906    1.8664    0.0000 H       1  UNL1        0.0235
     29 H           5.6630   -0.2031    0.0000 H       1  UNL1        0.0235
     30 H           6.4077    0.2597    0.0000 H       1  UNL1        0.0235
     31 H           5.9450    1.0044    0.0000 H       1  UNL1        0.0235
     32 H           5.8735   -1.1890    0.0000 H       1  UNL1        0.0233
     33 H           6.7448   -1.0908    0.0000 H       1  UNL1        0.0233
     34 H           6.6466   -0.2195    0.0000 H       1  UNL1        0.0233
     35 H           3.1940   -2.2346    0.0000 H       1  UNL1        0.0617
     36 H           1.7639   -0.0952    0.0000 H       1  UNL1        0.0538
     37 H           1.6216   -1.1596    0.0000 H       1  UNL1        0.0538
@<TRIPOS>BOND
     1     1     2    1
     2     1     4    1
     3     1     5    1
     4     1     9    1
     5     2     3    1
     6     2    10    1
     7     2    11    1
     8     3     6    1
     9     3     7    1
    10     3    16    1
    11     4     6    1
    12     4    12    1
    13     4    17    1
    14     5     8    1
    15     5    13    1
    16     5    18    1
    17     6    19    1
    18     6    20    1
    19     7     8    1
    20     7    21    1
    21     7    22    1
    22     8    23    1
    23     8    24    1
    24     9    14    2
    25     9    25    1
    26    10    26    1
    27    10    27    1
    28    10    28    1
    29    11    29    1
    30    11    30    1
    31    11    31    1
    32    12    14    1
    33    12    15    2
    34    13    32    1
    35    13    33    1
    36    13    34    1
    37    14    35    1
    38    15    36    1
    39    15    37    1
