@<TRIPOS>MOLECULE
IMPHY012225
 83 87 0 0 0
SMALL
GASTEIGER

@<TRIPOS>ATOM
      1 O          10.9848    2.7352    0.0000 O.3     1  UNL1       -0.3887
      2 O           3.3248    0.5236    0.0000 O.3     1  UNL1       -0.3880
      3 O           9.1654    3.7671    0.0000 O.3     1  UNL1       -0.3892
      4 O           3.8493   -3.4509    0.0000 O.3     1  UNL1       -0.4802
      5 O           5.5813   -3.4642    0.0000 O.2     1  UNL1       -0.2504
      6 C           7.3770   -0.4091    0.0000 C.3     1  UNL1       -0.0194
      7 C           7.3770    0.5909    0.0000 C.3     1  UNL1       -0.0257
      8 C           8.2709    1.1255    0.0000 C.3     1  UNL1       -0.0226
      9 C           6.5109   -0.9091    0.0000 C.3     1  UNL1       -0.0050
     10 C           9.1770    0.6117    0.0000 C.3     1  UNL1       -0.0277
     11 C           8.2709   -0.9438    0.0000 C.3     1  UNL1       -0.0463
     12 C           5.6449   -0.4091    0.0000 C.2     1  UNL1       -0.0602
     13 C           9.1770   -0.4300    0.0000 C.3     1  UNL1       -0.0486
     14 C           4.7349   -0.9160    0.0000 C.3     1  UNL1        0.0252
     15 C          10.1208    1.1469    0.0000 C.3     1  UNL1       -0.0032
     16 C           6.5109    1.0909    0.0000 C.3     1  UNL1       -0.0306
     17 C           6.5270   -1.9506    0.0000 C.3     1  UNL1       -0.0424
     18 C           8.2458    2.2102    0.0000 C.3     1  UNL1       -0.0184
     19 C           4.7269   -1.9576    0.0000 C.3     1  UNL1        0.0767
     20 C           5.6290   -2.4784    0.0000 C.3     1  UNL1       -0.0358
     21 C           7.7191   -1.3488    0.0000 C.3     1  UNL1       -0.0585
     22 C          10.1208    2.2319    0.0000 C.3     1  UNL1        0.0864
     23 C           5.6449    0.5909    0.0000 C.2     1  UNL1       -0.0835
     24 C           3.8081   -0.3519    0.0000 C.3     1  UNL1        0.0733
     25 C           7.4010    1.6188    0.0000 C.3     1  UNL1       -0.0589
     26 C           9.1770    2.7671    0.0000 C.3     1  UNL1        0.0821
     27 C           7.1537   -1.6752    0.0000 C.3     1  UNL1       -0.0553
     28 C           3.7914   -2.5073    0.0000 C.3     1  UNL1       -0.0363
     29 C           2.8602   -0.8799    0.0000 C.3     1  UNL1       -0.0146
     30 C          11.1207    1.1431    0.0000 C.3     1  UNL1       -0.0571
     31 C          10.6174    0.2790    0.0000 C.3     1  UNL1       -0.0571
     32 C           2.8518   -1.9648    0.0000 C.3     1  UNL1       -0.0468
     33 C           4.7192   -2.9576    0.0000 C.2     1  UNL1        0.3116
     34 C           4.3247    0.5043    0.0000 C.3     1  UNL1       -0.0352
     35 C           2.0000   -0.3699    0.0000 C.3     1  UNL1       -0.0598
     36 H           8.1163    0.1715    0.0000 H       1  UNL1        0.0315
     37 H           9.9114    0.1838    0.0000 H       1  UNL1        0.0312
     38 H           7.8663   -1.4136    0.0000 H       1  UNL1        0.0271
     39 H           8.6645   -1.4228    0.0000 H       1  UNL1        0.0271
     40 H           9.3860   -1.0136    0.0000 H       1  UNL1        0.0268
     41 H           9.7878   -0.3239    0.0000 H       1  UNL1        0.0268
     42 H           4.7513   -0.0661    0.0000 H       1  UNL1        0.0384
     43 H           6.9095    1.5658    0.0000 H       1  UNL1        0.0310
     44 H           6.1124    1.5658    0.0000 H       1  UNL1        0.0310
     45 H           6.7450   -2.5310    0.0000 H       1  UNL1        0.0274
     46 H           7.1361   -1.8352    0.0000 H       1  UNL1        0.0274
     47 H           8.0233    2.7889    0.0000 H       1  UNL1        0.0296
     48 H           7.6376    2.0900    0.0000 H       1  UNL1        0.0296
     49 H           5.2316   -2.9544    0.0000 H       1  UNL1        0.0276
     50 H           6.0299   -2.9513    0.0000 H       1  UNL1        0.0276
     51 H           7.1365   -1.5609    0.0000 H       1  UNL1        0.0235
     52 H           7.9312   -1.9314    0.0000 H       1  UNL1        0.0235
     53 H           8.3017   -1.1367    0.0000 H       1  UNL1        0.0235
     54 H          10.6583    1.9229    0.0000 H       1  UNL1        0.0624
     55 H           5.1080    0.9009    0.0000 H       1  UNL1        0.0572
     56 H           7.7069    2.1581    0.0000 H       1  UNL1        0.0235
     57 H           6.8617    1.9247    0.0000 H       1  UNL1        0.0235
     58 H           7.0952    1.0795    0.0000 H       1  UNL1        0.0235
     59 H           8.6359    3.0699    0.0000 H       1  UNL1        0.0619
     60 H           6.6788   -2.0737    0.0000 H       1  UNL1        0.0238
     61 H           7.5522   -2.1501    0.0000 H       1  UNL1        0.0238
     62 H           7.6287   -1.2767    0.0000 H       1  UNL1        0.0238
     63 H           3.3942   -2.9833    0.0000 H       1  UNL1        0.0276
     64 H           4.1924   -2.9802    0.0000 H       1  UNL1        0.0276
     65 H           2.8686   -0.2599    0.0000 H       1  UNL1        0.0326
     66 H          11.1184    0.5231    0.0000 H       1  UNL1        0.0236
     67 H          11.7407    1.1407    0.0000 H       1  UNL1        0.0236
     68 H          11.1231    1.7630    0.0000 H       1  UNL1        0.0236
     69 H          10.0793   -0.0290    0.0000 H       1  UNL1        0.0236
     70 H          10.9253   -0.2592    0.0000 H       1  UNL1        0.0236
     71 H          11.1555    0.5869    0.0000 H       1  UNL1        0.0236
     72 H           2.2418   -1.8540    0.0000 H       1  UNL1        0.0269
     73 H           2.6383   -2.5469    0.0000 H       1  UNL1        0.0269
     74 H           4.8555    0.1840    0.0000 H       1  UNL1        0.0257
     75 H           4.6450    1.0352    0.0000 H       1  UNL1        0.0257
     76 H           3.7938    0.8246    0.0000 H       1  UNL1        0.0257
     77 H          10.9825    3.3552    0.0000 H       1  UNL1        0.2099
     78 H           2.3162    0.1634    0.0000 H       1  UNL1        0.0233
     79 H           1.4667   -0.0537    0.0000 H       1  UNL1        0.0233
     80 H           1.6838   -0.9032    0.0000 H       1  UNL1        0.0233
     81 H           2.7050    0.5355    0.0000 H       1  UNL1        0.2102
     82 H           8.6249    4.0708    0.0000 H       1  UNL1        0.2099
     83 H           3.8445   -4.0708    0.0000 H       1  UNL1        0.2951
@<TRIPOS>BOND
     1    22     1    1
     2     1    77    1
     3    24     2    1
     4     2    81    1
     5    26     3    1
     6     3    82    1
     7     4    33    1
     8     4    83    1
     9     5    33    2
    10     6     7    1
    11     6     9    1
    12     6    11    1
    13     6    21    1
    14     7     8    1
    15     7    16    1
    16     7    36    1
    17     8    10    1
    18     8    18    1
    19     8    25    1
    20     9    12    1
    21     9    17    1
    22     9    27    1
    23    10    13    1
    24    10    15    1
    25    10    37    1
    26    11    13    1
    27    11    38    1
    28    11    39    1
    29    12    14    1
    30    12    23    2
    31    13    40    1
    32    13    41    1
    33    14    19    1
    34    14    24    1
    35    14    42    1
    36    15    22    1
    37    15    30    1
    38    15    31    1
    39    16    23    1
    40    16    43    1
    41    16    44    1
    42    17    20    1
    43    17    45    1
    44    17    46    1
    45    18    26    1
    46    18    47    1
    47    18    48    1
    48    19    20    1
    49    19    28    1
    50    19    33    1
    51    20    49    1
    52    20    50    1
    53    21    51    1
    54    21    52    1
    55    21    53    1
    56    22    26    1
    57    22    54    1
    58    23    55    1
    59    24    29    1
    60    24    34    1
    61    25    56    1
    62    25    57    1
    63    25    58    1
    64    26    59    1
    65    27    60    1
    66    27    61    1
    67    27    62    1
    68    28    32    1
    69    28    63    1
    70    28    64    1
    71    29    32    1
    72    29    35    1
    73    29    65    1
    74    30    66    1
    75    30    67    1
    76    30    68    1
    77    31    69    1
    78    31    70    1
    79    31    71    1
    80    32    72    1
    81    32    73    1
    82    34    74    1
    83    34    75    1
    84    34    76    1
    85    35    78    1
    86    35    79    1
    87    35    80    1
