@<TRIPOS>MOLECULE
IMPHY002196
 55 57 0 0 0
SMALL
GASTEIGER

@<TRIPOS>ATOM
      1 O           5.5220    0.5159    0.0000 O.3     1  UNL1       -0.4594
      2 O           4.7882    0.3009    0.0000 O.3     1  UNL1       -0.3901
      3 O           2.9239    0.0159    0.0000 O.3     1  UNL1       -0.4622
      4 O           4.8668   -2.6630    0.0000 O.3     1  UNL1       -0.3846
      5 O           3.0035   -2.4698    0.0000 O.3     1  UNL1       -0.3754
      6 O           6.9662   -0.5716    0.0000 O.2     1  UNL1       -0.2504
      7 O           2.0000   -1.3667    0.0000 O.2     1  UNL1       -0.2475
      8 N           4.8651    2.9878    0.0000 N.3     1  UNL1       -0.2929
      9 C           4.6559    2.0160    0.0000 C.3     1  UNL1        0.0558
     10 C           3.7899    1.5159    0.0000 C.3     1  UNL1        0.0394
     11 C           5.5220    1.5159    0.0000 C.3     1  UNL1        0.1201
     12 C           4.7748    1.3008    0.0000 C.3     1  UNL1        0.0754
     13 C           5.3695    2.1149    0.0000 C.3     1  UNL1        0.0258
     14 C           5.8539    3.0908    0.0000 C.3     1  UNL1        0.0028
     15 C           6.2590    2.1830    0.0000 C.3     1  UNL1       -0.0014
     16 C           3.7899    0.5159    0.0000 C.3     1  UNL1        0.0993
     17 C           5.1310   -0.8251    0.0000 C.3     1  UNL1        0.0903
     18 C           4.6310   -1.6912    0.0000 C.3     1  UNL1        0.1150
     19 C           3.6310   -1.6912    0.0000 C.3     1  UNL1        0.1885
     20 C           5.9970   -0.3251    0.0000 C.2     1  UNL1        0.3136
     21 C           4.3118   -0.2516    0.0000 C.3     1  UNL1       -0.0310
     22 C           2.9239   -0.9841    0.0000 C.2     1  UNL1        0.3418
     23 C           5.6028   -1.9269    0.0000 C.3     1  UNL1       -0.0320
     24 C           3.6985   -2.6889    0.0000 C.3     1  UNL1       -0.0227
     25 C           3.6047   -0.9586    0.0000 C.3     1  UNL1       -0.0618
     26 C           4.3990    0.7446    0.0000 C.3     1  UNL1       -0.0618
     27 H           4.2309    2.7521    0.0000 H       1  UNL1        0.0504
     28 H           3.0538    1.9410    0.0000 H       1  UNL1        0.0376
     29 H           6.2989    1.1712    0.0000 H       1  UNL1        0.0750
     30 H           5.3655    1.1124    0.0000 H       1  UNL1        0.0610
     31 H           5.8148    1.6835    0.0000 H       1  UNL1        0.0452
     32 H           5.8583    2.4963    0.0000 H       1  UNL1        0.0452
     33 H           6.4435    3.2826    0.0000 H       1  UNL1        0.0428
     34 H           5.7251    3.6973    0.0000 H       1  UNL1        0.0428
     35 H           6.6244    1.6822    0.0000 H       1  UNL1        0.0314
     36 H           6.7955    2.4938    0.0000 H       1  UNL1        0.0314
     37 H           4.0020   -0.0667    0.0000 H       1  UNL1        0.0701
     38 H           4.4005    0.6236    0.0000 H       1  UNL1        0.0701
     39 H           5.1580   -0.2057    0.0000 H       1  UNL1        0.0445
     40 H           5.1930   -0.1687    0.0000 H       1  UNL1        0.2098
     41 H           3.7499    0.0105    0.0000 H       1  UNL1        0.0304
     42 H           5.4566   -2.5294    0.0000 H       1  UNL1        0.0259
     43 H           6.2053   -2.0731    0.0000 H       1  UNL1        0.0259
     44 H           5.7490   -1.3244    0.0000 H       1  UNL1        0.0259
     45 H           3.0799   -2.7307    0.0000 H       1  UNL1        0.0264
     46 H           3.7403   -3.3075    0.0000 H       1  UNL1        0.0264
     47 H           4.3170   -2.6470    0.0000 H       1  UNL1        0.0264
     48 H           3.1663   -0.5202    0.0000 H       1  UNL1        0.0233
     49 H           5.0166    0.6906    0.0000 H       1  UNL1        0.0233
     50 H           4.4530    1.3623    0.0000 H       1  UNL1        0.0233
     51 H           3.7814    0.7987    0.0000 H       1  UNL1        0.0233
     52 H           3.1663   -1.3970    0.0000 H       1  UNL1        0.0233
     53 H           4.0431   -1.3971    0.0000 H       1  UNL1        0.0233
     54 H           4.4180   -3.0908    0.0000 H       1  UNL1        0.2103
     55 H           2.3909   -2.3743    0.0000 H       1  UNL1        0.2110
@<TRIPOS>BOND
     1     1    11    1
     2     1    20    1
     3    12     2    1
     4     2    40    1
     5     3    16    1
     6     3    22    1
     7    18     4    1
     8     4    54    1
     9    19     5    1
    10     5    55    1
    11     6    20    2
    12     7    22    2
    13     8     9    1
    14     8    13    1
    15     8    14    1
    16     9    10    1
    17     9    11    1
    18     9    27    1
    19    10    12    1
    20    10    16    1
    21    10    28    1
    22    11    15    1
    23    11    29    1
    24    12    13    1
    25    12    30    1
    26    13    31    1
    27    13    32    1
    28    14    15    1
    29    14    33    1
    30    14    34    1
    31    15    35    1
    32    15    36    1
    33    16    37    1
    34    16    38    1
    35    17    18    1
    36    17    20    1
    37    17    21    1
    38    17    39    1
    39    18    19    1
    40    18    23    1
    41    19    22    1
    42    19    24    1
    43    21    25    1
    44    21    26    1
    45    21    41    1
    46    23    42    1
    47    23    43    1
    48    23    44    1
    49    24    45    1
    50    24    46    1
    51    24    47    1
    52    25    48    1
    53    25    52    1
    54    25    53    1
    55    26    49    1
    56    26    50    1
    57    26    51    1
