@<TRIPOS>MOLECULE
IMPHY007367
 42 43 0 0 0
SMALL
GASTEIGER

@<TRIPOS>ATOM
      1 O           2.0463   -0.2307    0.0000 O.3     1  UNL1       -0.3885
      2 C           5.1379    0.7032    0.0000 C.3     1  UNL1       -0.0105
      3 C           6.0319   -0.8315    0.0000 C.3     1  UNL1       -0.0134
      4 C           5.1379   -0.2968    0.0000 C.2     1  UNL1       -0.0618
      5 C           6.0319    1.2379    0.0000 C.3     1  UNL1       -0.0439
      6 C           4.3561    1.3267    0.0000 C.3     1  UNL1       -0.0413
      7 C           6.9380   -0.3176    0.0000 C.3     1  UNL1       -0.0441
      8 C           6.9380    0.7240    0.0000 C.3     1  UNL1       -0.0515
      9 C           3.3812    1.1042    0.0000 C.3     1  UNL1       -0.0232
     10 C           2.9473    0.2032    0.0000 C.3     1  UNL1        0.0668
     11 C           5.1379    1.7032    0.0000 C.3     1  UNL1       -0.0558
     12 C           4.3561   -0.9203    0.0000 C.2     1  UNL1       -0.0810
     13 C           3.3812   -0.6978    0.0000 C.3     1  UNL1       -0.0057
     14 C           6.5218   -1.7032    0.0000 C.3     1  UNL1       -0.0561
     15 C           5.5219   -1.6916    0.0000 C.3     1  UNL1       -0.0561
     16 C           2.0463    0.6371    0.0000 C.3     1  UNL1       -0.0358
     17 H           6.4255    1.7169    0.0000 H       1  UNL1        0.0274
     18 H           5.6273    1.7076    0.0000 H       1  UNL1        0.0274
     19 H           4.8408    1.7133    0.0000 H       1  UNL1        0.0274
     20 H           4.0871    1.8853    0.0000 H       1  UNL1        0.0274
     21 H           7.1470   -0.9013    0.0000 H       1  UNL1        0.0273
     22 H           7.5488   -0.2115    0.0000 H       1  UNL1        0.0273
     23 H           7.5488    0.6179    0.0000 H       1  UNL1        0.0266
     24 H           7.1470    1.3077    0.0000 H       1  UNL1        0.0266
     25 H           3.3812    1.7242    0.0000 H       1  UNL1        0.0293
     26 H           2.7767    1.2421    0.0000 H       1  UNL1        0.0293
     27 H           5.7579    1.7032    0.0000 H       1  UNL1        0.0238
     28 H           5.1379    2.3232    0.0000 H       1  UNL1        0.0238
     29 H           4.5179    1.7032    0.0000 H       1  UNL1        0.0238
     30 H           4.4941   -1.5247    0.0000 H       1  UNL1        0.0573
     31 H           2.7767   -0.8357    0.0000 H       1  UNL1        0.0335
     32 H           3.3812   -1.3178    0.0000 H       1  UNL1        0.0335
     33 H           5.9814   -2.0070    0.0000 H       1  UNL1        0.0238
     34 H           6.8256   -2.2437    0.0000 H       1  UNL1        0.0238
     35 H           7.0623   -1.3994    0.0000 H       1  UNL1        0.0238
     36 H           4.9886   -1.3754    0.0000 H       1  UNL1        0.0238
     37 H           5.2057   -2.2250    0.0000 H       1  UNL1        0.0238
     38 H           6.0552   -2.0078    0.0000 H       1  UNL1        0.0238
     39 H           2.3153    1.1957    0.0000 H       1  UNL1        0.0257
     40 H           1.4877    0.9061    0.0000 H       1  UNL1        0.0257
     41 H           1.7773    0.0785    0.0000 H       1  UNL1        0.0257
     42 H           2.0000   -0.8489    0.0000 H       1  UNL1        0.2102
@<TRIPOS>BOND
     1    10     1    1
     2     1    42    1
     3     2     4    1
     4     2     5    1
     5     2     6    1
     6     2    11    1
     7     3     4    1
     8     3     7    1
     9     3    14    1
    10     3    15    1
    11     4    12    2
    12     5     8    1
    13     5    17    1
    14     5    18    1
    15     6     9    1
    16     6    19    1
    17     6    20    1
    18     7     8    1
    19     7    21    1
    20     7    22    1
    21     8    23    1
    22     8    24    1
    23     9    10    1
    24     9    25    1
    25     9    26    1
    26    10    13    1
    27    10    16    1
    28    11    27    1
    29    11    28    1
    30    11    29    1
    31    12    13    1
    32    12    30    1
    33    13    31    1
    34    13    32    1
    35    14    33    1
    36    14    34    1
    37    14    35    1
    38    15    36    1
    39    15    37    1
    40    15    38    1
    41    16    39    1
    42    16    40    1
    43    16    41    1
