@<TRIPOS>MOLECULE
IMPHY000355
 40 42 0 0 0
SMALL
GASTEIGER

@<TRIPOS>ATOM
      1 O           4.3925   -1.9744    0.0000 O.3     1  UNL1       -0.3647
      2 C           4.8925   -1.1084    0.0000 C.3     1  UNL1        0.0965
      3 C           5.3925   -1.9744    0.0000 C.3     1  UNL1        0.0887
      4 C           4.0265   -0.6084    0.0000 C.3     1  UNL1       -0.0147
      5 C           5.7586   -0.6084    0.0000 C.3     1  UNL1       -0.0210
      6 C           4.0265    0.3916    0.0000 C.3     1  UNL1       -0.0169
      7 C           4.8925    0.8916    0.0000 C.3     1  UNL1       -0.0323
      8 C           5.7586    0.3916    0.0000 C.3     1  UNL1       -0.0468
      9 C           4.4647   -2.3916    0.0000 C.3     1  UNL1       -0.0202
     10 C           4.8925    1.8916    0.0000 C.3     1  UNL1       -0.0434
     11 C           3.2012   -0.2033    0.0000 C.2     1  UNL1       -0.0816
     12 C           3.4965   -2.0791    0.0000 C.3     1  UNL1       -0.0296
     13 C           2.9878   -1.1980    0.0000 C.2     1  UNL1       -0.0762
     14 C           5.7586    2.3916    0.0000 C.3     1  UNL1       -0.0624
     15 C           4.0265    2.3916    0.0000 C.3     1  UNL1       -0.0624
     16 C           2.0000   -1.3535    0.0000 C.3     1  UNL1       -0.0438
     17 H           6.2014   -2.2355    0.0000 H       1  UNL1        0.0625
     18 H           3.4159   -0.5007    0.0000 H       1  UNL1        0.0300
     19 H           3.8145   -1.1910    0.0000 H       1  UNL1        0.0300
     20 H           5.9706   -1.1910    0.0000 H       1  UNL1        0.0294
     21 H           6.3691   -0.5007    0.0000 H       1  UNL1        0.0294
     22 H           3.5649    1.1054    0.0000 H       1  UNL1        0.0347
     23 H           5.4295    1.2017    0.0000 H       1  UNL1        0.0309
     24 H           6.3691    0.2840    0.0000 H       1  UNL1        0.0269
     25 H           5.9706    0.9743    0.0000 H       1  UNL1        0.0269
     26 H           4.1193   -2.9065    0.0000 H       1  UNL1        0.0294
     27 H           4.8647   -2.8654    0.0000 H       1  UNL1        0.0294
     28 H           4.8925    2.5116    0.0000 H       1  UNL1        0.0298
     29 H           2.6822    0.1359    0.0000 H       1  UNL1        0.0574
     30 H           2.8950   -2.2294    0.0000 H       1  UNL1        0.0311
     31 H           3.4756   -2.6987    0.0000 H       1  UNL1        0.0311
     32 H           6.0686    1.8547    0.0000 H       1  UNL1        0.0232
     33 H           6.2955    2.7016    0.0000 H       1  UNL1        0.0232
     34 H           5.4486    2.9286    0.0000 H       1  UNL1        0.0232
     35 H           4.3365    2.9286    0.0000 H       1  UNL1        0.0232
     36 H           3.4896    2.7016    0.0000 H       1  UNL1        0.0232
     37 H           3.7165    1.8547    0.0000 H       1  UNL1        0.0232
     38 H           1.9036   -0.7411    0.0000 H       1  UNL1        0.0274
     39 H           1.3875   -1.4499    0.0000 H       1  UNL1        0.0274
     40 H           2.0964   -1.9660    0.0000 H       1  UNL1        0.0274
@<TRIPOS>BOND
     1     2     1    1
     2     1     3    1
     3     2     3    1
     4     2     4    1
     5     2     5    1
     6     3     9    1
     7     3    17    1
     8     4     6    1
     9     4    18    1
    10     4    19    1
    11     5     8    1
    12     5    20    1
    13     5    21    1
    14     6     7    1
    15     6    11    1
    16     6    22    1
    17     7     8    1
    18     7    10    1
    19     7    23    1
    20     8    24    1
    21     8    25    1
    22     9    12    1
    23     9    26    1
    24     9    27    1
    25    10    14    1
    26    10    15    1
    27    10    28    1
    28    11    13    2
    29    11    29    1
    30    12    13    1
    31    12    30    1
    32    12    31    1
    33    13    16    1
    34    14    32    1
    35    14    33    1
    36    14    34    1
    37    15    35    1
    38    15    36    1
    39    15    37    1
    40    16    38    1
    41    16    39    1
    42    16    40    1
