@<TRIPOS>MOLECULE
IMPHY011806
 36 38 0 0 0
SMALL
GASTEIGER

@<TRIPOS>ATOM
      1 O           6.0682   -0.2704    0.0000 O.3     1  UNL1       -0.4811
      2 O           7.8003    1.7296    0.0000 O.3     1  UNL1       -0.3875
      3 O           4.3198    2.7642    0.0000 O.3     1  UNL1       -0.5063
      4 O           2.5381   -0.2945    0.0000 O.3     1  UNL1       -0.5065
      5 O          10.3984    0.2296    0.0000 O.3     1  UNL1       -0.5032
      6 O           8.6663   -2.7704    0.0000 O.3     1  UNL1       -0.5032
      7 O          10.3984   -1.7704    0.0000 O.3     1  UNL1       -0.5009
      8 C           6.9343    1.2296    0.0000 C.3     1  UNL1        0.1004
      9 C           6.9343    0.2296    0.0000 C.3     1  UNL1        0.1514
     10 C           6.0682    1.7296    0.0000 C.3     1  UNL1        0.0092
     11 C           5.2022    1.2296    0.0000 C.ar    1  UNL1        0.0384
     12 C           7.8003   -0.2704    0.0000 C.ar    1  UNL1        0.0023
     13 C           5.2022    0.2296    0.0000 C.ar    1  UNL1        0.1317
     14 C           4.3083    1.7643    0.0000 C.ar    1  UNL1        0.1270
     15 C           4.3083   -0.3051    0.0000 C.ar    1  UNL1        0.0221
     16 C           7.8003   -1.2704    0.0000 C.ar    1  UNL1       -0.0095
     17 C           8.6663    0.2296    0.0000 C.ar    1  UNL1       -0.0095
     18 C           3.4022    1.2504    0.0000 C.ar    1  UNL1        0.0218
     19 C           3.4022    0.2088    0.0000 C.ar    1  UNL1        0.1238
     20 C           9.5323   -0.2704    0.0000 C.ar    1  UNL1        0.1623
     21 C           8.6663   -1.7704    0.0000 C.ar    1  UNL1        0.1623
     22 C           9.5323   -1.2704    0.0000 C.ar    1  UNL1        0.2006
     23 H           6.9343    1.8496    0.0000 H       1  UNL1        0.0637
     24 H           6.9343   -0.3904    0.0000 H       1  UNL1        0.0811
     25 H           6.4668    2.2046    0.0000 H       1  UNL1        0.0342
     26 H           5.6697    2.2046    0.0000 H       1  UNL1        0.0342
     27 H           4.3154   -0.9250    0.0000 H       1  UNL1        0.0691
     28 H           7.2634   -1.5804    0.0000 H       1  UNL1        0.0659
     29 H           8.6663    0.8496    0.0000 H       1  UNL1        0.0659
     30 H           7.8003    2.3496    0.0000 H       1  UNL1        0.2100
     31 H           2.8665    1.5625    0.0000 H       1  UNL1        0.0691
     32 H           3.7865    3.0804    0.0000 H       1  UNL1        0.2921
     33 H           2.0000    0.0134    0.0000 H       1  UNL1        0.2921
     34 H          10.3984    0.8496    0.0000 H       1  UNL1        0.2923
     35 H           8.1294   -3.0804    0.0000 H       1  UNL1        0.2923
     36 H          10.3984   -2.3904    0.0000 H       1  UNL1        0.2924
@<TRIPOS>BOND
     1     1     9    1
     2     1    13    1
     3     8     2    1
     4     2    30    1
     5     3    14    1
     6     3    32    1
     7     4    19    1
     8     4    33    1
     9     5    20    1
    10     5    34    1
    11     6    21    1
    12     6    35    1
    13     7    22    1
    14     7    36    1
    15     8     9    1
    16     8    10    1
    17     8    23    1
    18     9    12    1
    19     9    24    1
    20    10    11    1
    21    10    25    1
    22    10    26    1
    23    11    13   ar
    24    11    14   ar
    25    12    16   ar
    26    12    17   ar
    27    13    15   ar
    28    14    18   ar
    29    15    19   ar
    30    15    27    1
    31    16    21   ar
    32    16    28    1
    33    17    20   ar
    34    17    29    1
    35    18    19   ar
    36    18    31    1
    37    20    22   ar
    38    21    22   ar
