@<TRIPOS>MOLECULE
IMPHY000937
 118 124 0 0 0
SMALL
GASTEIGER

@<TRIPOS>ATOM
      1 O           7.7331   -0.9100    0.0000 O.3     1  UNL1       -0.3449
      2 O          16.6462    2.2109    0.0000 O.3     1  UNL1       -0.4802
      3 O          15.7976    0.7010    0.0000 O.2     1  UNL1       -0.2504
      4 O           6.8671    0.5900    0.0000 O.3     1  UNL1       -0.3461
      5 O           6.0010   -1.9100    0.0000 O.3     1  UNL1       -0.3378
      6 O           4.2690   -0.9100    0.0000 O.3     1  UNL1       -0.3864
      7 O           4.2690    1.0900    0.0000 O.3     1  UNL1       -0.3869
      8 O           4.2690   -1.9100    0.0000 O.3     1  UNL1       -0.3431
      9 O           6.0010   -3.9100    0.0000 O.3     1  UNL1       -0.3841
     10 O           4.2690   -4.9100    0.0000 O.3     1  UNL1       -0.3864
     11 O           2.5369   -3.9100    0.0000 O.3     1  UNL1       -0.3866
     12 C          12.2541    0.6598    0.0000 C.3     1  UNL1       -0.0194
     13 C          11.3862    1.1565    0.0000 C.3     1  UNL1       -0.0257
     14 C          10.4781    0.6461    0.0000 C.3     1  UNL1       -0.0250
     15 C          13.1182    1.1631    0.0000 C.3     1  UNL1       -0.0051
     16 C          10.4741   -0.3955    0.0000 C.3     1  UNL1       -0.0278
     17 C          12.2742   -0.3816    0.0000 C.3     1  UNL1       -0.0463
     18 C           9.5408   -0.9488    0.0000 C.3     1  UNL1       -0.0052
     19 C          11.3782   -0.9128    0.0000 C.3     1  UNL1       -0.0486
     20 C          13.1144    2.1631    0.0000 C.2     1  UNL1       -0.0629
     21 C          11.3823    2.1564    0.0000 C.3     1  UNL1       -0.0306
     22 C           9.5491    1.2066    0.0000 C.3     1  UNL1       -0.0447
     23 C          14.0062    2.7012    0.0000 C.3     1  UNL1       -0.0031
     24 C          14.0142    0.6319    0.0000 C.3     1  UNL1       -0.0424
     25 C          14.9143    2.1909    0.0000 C.3     1  UNL1        0.0741
     26 C          12.8999   -0.1038    0.0000 C.3     1  UNL1       -0.0585
     27 C           8.5991   -0.4100    0.0000 C.3     1  UNL1        0.0672
     28 C          14.9183    1.1493    0.0000 C.3     1  UNL1       -0.0359
     29 C          10.4820    1.6461    0.0000 C.3     1  UNL1       -0.0590
     30 C           8.6033    0.6750    0.0000 C.3     1  UNL1       -0.0255
     31 C          12.2464    2.6598    0.0000 C.2     1  UNL1       -0.0836
     32 C          13.4639    0.2248    0.0000 C.3     1  UNL1       -0.0553
     33 C          13.9770    3.7858    0.0000 C.3     1  UNL1       -0.0403
     34 C          15.8560    2.7298    0.0000 C.3     1  UNL1       -0.0362
     35 C          14.9060    4.3463    0.0000 C.3     1  UNL1       -0.0343
     36 C          10.0475   -1.8110    0.0000 C.3     1  UNL1       -0.0572
     37 C           9.0475   -1.8187    0.0000 C.3     1  UNL1       -0.0572
     38 C          15.8518    3.8147    0.0000 C.3     1  UNL1       -0.0468
     39 C          15.7860    1.7009    0.0000 C.2     1  UNL1        0.3115
     40 C          15.3926    5.2200    0.0000 C.3     1  UNL1       -0.0598
     41 C          14.3927    5.2046    0.0000 C.3     1  UNL1       -0.0598
     42 C           6.8671   -0.4100    0.0000 C.3     1  UNL1        0.1882
     43 C           6.0010   -0.9100    0.0000 C.3     1  UNL1        0.1406
     44 C           5.1350   -0.4100    0.0000 C.3     1  UNL1        0.1141
     45 C           6.0010    1.0900    0.0000 C.3     1  UNL1        0.0792
     46 C           5.1350    0.5900    0.0000 C.3     1  UNL1        0.1069
     47 C           5.1350   -2.4100    0.0000 C.3     1  UNL1        0.1884
     48 C           5.1350   -3.4100    0.0000 C.3     1  UNL1        0.1341
     49 C           4.2690   -3.9100    0.0000 C.3     1  UNL1        0.1140
     50 C           3.4030   -2.4100    0.0000 C.3     1  UNL1        0.0873
     51 C           3.4030   -3.4100    0.0000 C.3     1  UNL1        0.1095
     52 C           2.5369   -1.9100    0.0000 C.3     1  UNL1       -0.0361
     53 H          12.1207    1.5843    0.0000 H       1  UNL1        0.0315
     54 H          10.4807   -1.2455    0.0000 H       1  UNL1        0.0312
     55 H          12.4945   -0.9612    0.0000 H       1  UNL1        0.0271
     56 H          12.8829   -0.2638    0.0000 H       1  UNL1        0.0271
     57 H          10.9827   -1.3904    0.0000 H       1  UNL1        0.0268
     58 H          11.7810   -1.3842    0.0000 H       1  UNL1        0.0268
     59 H          11.1680    2.7382    0.0000 H       1  UNL1        0.0310
     60 H          10.7722    2.0464    0.0000 H       1  UNL1        0.0310
     61 H           9.9555    1.6748    0.0000 H       1  UNL1        0.0271
     62 H           9.1574    1.6872    0.0000 H       1  UNL1        0.0271
     63 H          14.7340    3.1403    0.0000 H       1  UNL1        0.0357
     64 H          13.6114    0.1606    0.0000 H       1  UNL1        0.0274
     65 H          14.4097    0.1544    0.0000 H       1  UNL1        0.0274
     66 H          12.4265   -0.5041    0.0000 H       1  UNL1        0.0235
     67 H          13.3002   -0.5772    0.0000 H       1  UNL1        0.0235
     68 H          13.3733    0.2966    0.0000 H       1  UNL1        0.0235
     69 H           8.0628   -0.0989    0.0000 H       1  UNL1        0.0602
     70 H          15.1296    0.5664    0.0000 H       1  UNL1        0.0276
     71 H          15.5287    1.2577    0.0000 H       1  UNL1        0.0276
     72 H          11.1020    1.6437    0.0000 H       1  UNL1        0.0235
     73 H          10.4844    2.2661    0.0000 H       1  UNL1        0.0235
     74 H           9.8620    1.6485    0.0000 H       1  UNL1        0.0235
     75 H           8.3965    1.2595    0.0000 H       1  UNL1        0.0290
     76 H           7.9920    0.5713    0.0000 H       1  UNL1        0.0290
     77 H          12.2440    3.2798    0.0000 H       1  UNL1        0.0572
     78 H          12.8821    0.0105    0.0000 H       1  UNL1        0.0238
     79 H          13.6782   -0.3570    0.0000 H       1  UNL1        0.0238
     80 H          14.0456    0.4391    0.0000 H       1  UNL1        0.0238
     81 H          13.7522    4.3637    0.0000 H       1  UNL1        0.0276
     82 H          13.3692    3.6633    0.0000 H       1  UNL1        0.0276
     83 H          16.0673    2.1469    0.0000 H       1  UNL1        0.0276
     84 H          16.4664    2.8382    0.0000 H       1  UNL1        0.0276
     85 H           8.5082   -1.5128    0.0000 H       1  UNL1        0.0236
     86 H           8.7417   -2.3580    0.0000 H       1  UNL1        0.0236
     87 H           9.5868   -2.1245    0.0000 H       1  UNL1        0.0236
     88 H           9.5130   -2.1251    0.0000 H       1  UNL1        0.0236
     89 H          10.3616   -2.3455    0.0000 H       1  UNL1        0.0236
     90 H          10.5820   -1.4968    0.0000 H       1  UNL1        0.0236
     91 H          16.4631    3.7110    0.0000 H       1  UNL1        0.0271
     92 H          16.0586    4.3992    0.0000 H       1  UNL1        0.0271
     93 H          14.9248    5.5228    0.0000 H       1  UNL1        0.0235
     94 H          14.0744    5.7366    0.0000 H       1  UNL1        0.0235
     95 H          13.8606    4.8863    0.0000 H       1  UNL1        0.0235
     96 H          15.9342    4.9183    0.0000 H       1  UNL1        0.0235
     97 H          15.6942    5.7616    0.0000 H       1  UNL1        0.0235
     98 H          14.8509    5.5216    0.0000 H       1  UNL1        0.0235
     99 H           6.8671   -1.0300    0.0000 H       1  UNL1        0.0937
    100 H          17.1867    1.9071    0.0000 H       1  UNL1        0.2951
    101 H           5.4641   -1.2200    0.0000 H       1  UNL1        0.0675
    102 H           4.5981   -0.1000    0.0000 H       1  UNL1        0.0648
    103 H           6.3996    1.5650    0.0000 H       1  UNL1        0.0587
    104 H           5.6025    1.5650    0.0000 H       1  UNL1        0.0587
    105 H           5.1350    1.2100    0.0000 H       1  UNL1        0.0643
    106 H           5.1350   -1.7900    0.0000 H       1  UNL1        0.0938
    107 H           3.7320   -0.6000    0.0000 H       1  UNL1        0.2100
    108 H           4.2690    1.7100    0.0000 H       1  UNL1        0.2100
    109 H           5.1350   -4.0300    0.0000 H       1  UNL1        0.0671
    110 H           3.7320   -4.2200    0.0000 H       1  UNL1        0.0648
    111 H           3.4030   -1.7900    0.0000 H       1  UNL1        0.0621
    112 H           2.8660   -3.1000    0.0000 H       1  UNL1        0.0646
    113 H           6.0010   -4.5300    0.0000 H       1  UNL1        0.2101
    114 H           2.8469   -1.3730    0.0000 H       1  UNL1        0.0255
    115 H           2.0000   -1.6000    0.0000 H       1  UNL1        0.0255
    116 H           2.2269   -2.4469    0.0000 H       1  UNL1        0.0255
    117 H           3.7320   -5.2200    0.0000 H       1  UNL1        0.2100
    118 H           2.0000   -3.6000    0.0000 H       1  UNL1        0.2100
@<TRIPOS>BOND
     1    27     1    1
     2    42     1    1
     3     2    39    1
     4     2   100    1
     5     3    39    2
     6     4    42    1
     7     4    45    1
     8    43     5    1
     9    47     5    1
    10    44     6    1
    11     6   107    1
    12    46     7    1
    13     7   108    1
    14     8    47    1
    15     8    50    1
    16    48     9    1
    17     9   113    1
    18    49    10    1
    19    10   117    1
    20    51    11    1
    21    11   118    1
    22    12    13    1
    23    12    15    1
    24    12    17    1
    25    12    26    1
    26    13    14    1
    27    13    21    1
    28    13    53    1
    29    14    16    1
    30    14    22    1
    31    14    29    1
    32    15    20    1
    33    15    24    1
    34    15    32    1
    35    16    18    1
    36    16    19    1
    37    16    54    1
    38    17    19    1
    39    17    55    1
    40    17    56    1
    41    18    27    1
    42    18    36    1
    43    18    37    1
    44    19    57    1
    45    19    58    1
    46    20    23    1
    47    20    31    2
    48    21    31    1
    49    21    59    1
    50    21    60    1
    51    22    30    1
    52    22    61    1
    53    22    62    1
    54    23    25    1
    55    23    33    1
    56    23    63    1
    57    24    28    1
    58    24    64    1
    59    24    65    1
    60    25    28    1
    61    25    34    1
    62    25    39    1
    63    26    66    1
    64    26    67    1
    65    26    68    1
    66    27    30    1
    67    27    69    1
    68    28    70    1
    69    28    71    1
    70    29    72    1
    71    29    73    1
    72    29    74    1
    73    30    75    1
    74    30    76    1
    75    31    77    1
    76    32    78    1
    77    32    79    1
    78    32    80    1
    79    33    35    1
    80    33    81    1
    81    33    82    1
    82    34    38    1
    83    34    83    1
    84    34    84    1
    85    35    38    1
    86    35    40    1
    87    35    41    1
    88    36    88    1
    89    36    89    1
    90    36    90    1
    91    37    85    1
    92    37    86    1
    93    37    87    1
    94    38    91    1
    95    38    92    1
    96    40    96    1
    97    40    97    1
    98    40    98    1
    99    41    93    1
   100    41    94    1
   101    41    95    1
   102    42    43    1
   103    42    99    1
   104    43    44    1
   105    43   101    1
   106    44    46    1
   107    44   102    1
   108    45    46    1
   109    45   103    1
   110    45   104    1
   111    46   105    1
   112    47    48    1
   113    47   106    1
   114    48    49    1
   115    48   109    1
   116    49    51    1
   117    49   110    1
   118    50    51    1
   119    50    52    1
   120    50   111    1
   121    51   112    1
   122    52   114    1
   123    52   115    1
   124    52   116    1
