@<TRIPOS>MOLECULE
IMPHY009536
 42 43 0 0 0
SMALL
GASTEIGER

@<TRIPOS>ATOM
      1 O           5.1154    1.1252    0.0000 O.3     1  UNL1       -0.3347
      2 O           5.0659   -1.1256    0.0000 O.3     1  UNL1       -0.4358
      3 O           4.8922   -0.1409    0.0000 O.3     1  UNL1       -0.3591
      4 O           2.3985    1.2988    0.0000 O.3     1  UNL1       -0.3836
      5 O           2.5173    2.6252    0.0000 O.3     1  UNL1       -0.3864
      6 O           4.2494    3.6252    0.0000 O.3     1  UNL1       -0.3865
      7 O           3.0963   -1.4731    0.0000 O.3     1  UNL1       -0.4445
      8 O           6.0506    0.2330    0.0000 O.3     1  UNL1       -0.3903
      9 O           5.9814    3.6252    0.0000 O.3     1  UNL1       -0.3924
     10 O           2.7954    0.2326    0.0000 O.2     1  UNL1       -0.2460
     11 O           5.3668   -2.8314    0.0000 O.2     1  UNL1       -0.2465
     12 O           2.4124   -3.3525    0.0000 O.3     1  UNL1       -0.3908
     13 C           4.2494    0.6251    0.0000 C.3     1  UNL1        0.2510
     14 C           3.3833    1.1252    0.0000 C.3     1  UNL1        0.1416
     15 C           4.4230   -0.3597    0.0000 C.3     1  UNL1        0.2865
     16 C           3.3833    2.1252    0.0000 C.3     1  UNL1        0.1145
     17 C           4.2494    2.6252    0.0000 C.3     1  UNL1        0.1119
     18 C           5.1154    2.1252    0.0000 C.3     1  UNL1        0.1134
     19 C           5.0658    0.4065    0.0000 C.3     1  UNL1        0.1000
     20 C           3.4383   -0.5334    0.0000 C.2     1  UNL1        0.3603
     21 C           5.9814    2.6252    0.0000 C.3     1  UNL1        0.0730
     22 C           3.7391   -2.2391    0.0000 C.3     1  UNL1        0.2217
     23 C           4.7239   -2.0654    0.0000 C.2     1  UNL1        0.3520
     24 C           3.3971   -3.1788    0.0000 C.3     1  UNL1        0.0918
     25 H           3.1713    0.5425    0.0000 H       1  UNL1        0.0676
     26 H           3.3833    2.7452    0.0000 H       1  UNL1        0.0648
     27 H           4.7863    2.9352    0.0000 H       1  UNL1        0.0647
     28 H           5.6523    1.8152    0.0000 H       1  UNL1        0.0647
     29 H           5.2778    0.9892    0.0000 H       1  UNL1        0.0605
     30 H           4.5289    0.7165    0.0000 H       1  UNL1        0.0605
     31 H           6.1935    2.0425    0.0000 H       1  UNL1        0.0584
     32 H           6.5920    2.7328    0.0000 H       1  UNL1        0.0584
     33 H           5.5027   -0.2486    0.0000 H       1  UNL1        0.2130
     34 H           2.0000    0.8238    0.0000 H       1  UNL1        0.2101
     35 H           2.5173    3.2452    0.0000 H       1  UNL1        0.2100
     36 H           3.1285   -2.3468    0.0000 H       1  UNL1        0.0877
     37 H           3.7124    3.9352    0.0000 H       1  UNL1        0.2100
     38 H           6.4491    0.7078    0.0000 H       1  UNL1        0.2096
     39 H           3.3972   -3.7988    0.0000 H       1  UNL1        0.0600
     40 H           4.0077   -3.2864    0.0000 H       1  UNL1        0.0600
     41 H           6.5183    3.9352    0.0000 H       1  UNL1        0.2095
     42 H           2.2004   -3.9352    0.0000 H       1  UNL1        0.2096
@<TRIPOS>BOND
     1     1    13    1
     2     1    18    1
     3     2    15    1
     4     2    23    1
     5    13     3    1
     6     3    33    1
     7    14     4    1
     8     4    34    1
     9    16     5    1
    10     5    35    1
    11    17     6    1
    12     6    37    1
    13     7    20    1
    14     7    22    1
    15     8    19    1
    16     8    38    1
    17     9    21    1
    18     9    41    1
    19    10    20    2
    20    11    23    2
    21    12    24    1
    22    12    42    1
    23    13    14    1
    24    13    15    1
    25    14    16    1
    26    14    25    1
    27    15    19    1
    28    15    20    1
    29    16    17    1
    30    16    26    1
    31    17    18    1
    32    17    27    1
    33    18    21    1
    34    18    28    1
    35    19    29    1
    36    19    30    1
    37    21    31    1
    38    21    32    1
    39    22    23    1
    40    22    24    1
    41    22    36    1
    42    24    39    1
    43    24    40    1
