@<TRIPOS>MOLECULE
IMPHY007772
 24 26 0 0 0
SMALL
GASTEIGER

@<TRIPOS>ATOM
      1 C           5.5321    0.5000    0.0000 C.ar    1  UNL1       -0.0173
      2 C           5.5321   -0.5000    0.0000 C.ar    1  UNL1       -0.0173
      3 C           3.8000    0.5000    0.0000 C.ar    1  UNL1       -0.0173
      4 C           3.8000   -0.5000    0.0000 C.ar    1  UNL1       -0.0173
      5 C           4.6660    1.0000    0.0000 C.ar    1  UNL1       -0.0463
      6 C           4.6660   -1.0000    0.0000 C.ar    1  UNL1       -0.0463
      7 C           6.4260    1.0347    0.0000 C.ar    1  UNL1       -0.0540
      8 C           6.4260   -1.0347    0.0000 C.ar    1  UNL1       -0.0540
      9 C           2.9061    1.0347    0.0000 C.ar    1  UNL1       -0.0540
     10 C           2.9061   -1.0347    0.0000 C.ar    1  UNL1       -0.0540
     11 C           7.3321   -0.5208    0.0000 C.ar    1  UNL1       -0.0612
     12 C           7.3321    0.5208    0.0000 C.ar    1  UNL1       -0.0612
     13 C           2.0000   -0.5208    0.0000 C.ar    1  UNL1       -0.0612
     14 C           2.0000    0.5208    0.0000 C.ar    1  UNL1       -0.0612
     15 H           4.6660    1.6200    0.0000 H       1  UNL1        0.0630
     16 H           4.6660   -1.6200    0.0000 H       1  UNL1        0.0630
     17 H           6.4188   -1.6546    0.0000 H       1  UNL1        0.0624
     18 H           6.4188    1.6546    0.0000 H       1  UNL1        0.0624
     19 H           2.9132    1.6546    0.0000 H       1  UNL1        0.0624
     20 H           2.9132   -1.6546    0.0000 H       1  UNL1        0.0624
     21 H           7.8678    0.8329    0.0000 H       1  UNL1        0.0618
     22 H           7.8678   -0.8329    0.0000 H       1  UNL1        0.0618
     23 H           1.4643    0.8329    0.0000 H       1  UNL1        0.0618
     24 H           1.4643   -0.8329    0.0000 H       1  UNL1        0.0618
@<TRIPOS>BOND
     1     1     2   ar
     2     1     5   ar
     3     1     7   ar
     4     2     6   ar
     5     2     8   ar
     6     3     4   ar
     7     3     5   ar
     8     3     9   ar
     9     4     6   ar
    10     4    10   ar
    11     5    15    1
    12     6    16    1
    13     7    12   ar
    14     7    18    1
    15     8    11   ar
    16     8    17    1
    17     9    14   ar
    18     9    19    1
    19    10    13   ar
    20    10    20    1
    21    11    12   ar
    22    11    22    1
    23    12    21    1
    24    13    14   ar
    25    13    24    1
    26    14    23    1
