@<TRIPOS>MOLECULE
IMPHY012493
 52 56 0 0 0
SMALL
GASTEIGER

@<TRIPOS>ATOM
      1 O           5.8785   -1.7760    0.0000 O.3     1  UNL1       -0.4599
      2 O           4.3012    1.6195    0.0000 O.3     1  UNL1       -0.3505
      3 O           2.2423   -2.0315    0.0000 O.3     1  UNL1       -0.3911
      4 O           2.6307    1.6728    0.0000 O.3     1  UNL1       -0.3667
      5 O           7.6405   -1.6060    0.0000 O.2     1  UNL1       -0.2497
      6 O           8.3235   -0.3348    0.0000 O.2     1  UNL1       -0.2912
      7 C           4.8702   -0.2847    0.0000 C.3     1  UNL1        0.0434
      8 C           5.7398    0.2887    0.0000 C.3     1  UNL1       -0.0065
      9 C           3.9038    0.2085    0.0000 C.3     1  UNL1        0.0288
     10 C           6.6407   -0.1452    0.0000 C.3     1  UNL1        0.1336
     11 C           4.9400   -1.3240    0.0000 C.3     1  UNL1        0.1139
     12 C           2.9980   -0.3888    0.0000 C.3     1  UNL1       -0.0007
     13 C           5.1474    0.7576    0.0000 C.3     1  UNL1        0.0604
     14 C           5.5172    1.2636    0.0000 C.3     1  UNL1       -0.0475
     15 C           6.5339    1.0316    0.0000 C.3     1  UNL1       -0.0228
     16 C           4.0483   -1.9421    0.0000 C.3     1  UNL1        0.0116
     17 C           3.0707   -1.4714    0.0000 C.3     1  UNL1        0.0641
     18 C           3.5206    1.2167    0.0000 C.3     1  UNL1        0.1602
     19 C           7.1407    2.0455    0.0000 C.3     1  UNL1       -0.0116
     20 C           6.1407    2.0455    0.0000 C.3     1  UNL1       -0.0458
     21 C           6.7346   -1.1826    0.0000 C.2     1  UNL1        0.3215
     22 C           7.5417    0.2887    0.0000 C.2     1  UNL1        0.1760
     23 C           7.7642    1.2636    0.0000 C.2     1  UNL1       -0.0078
     24 C           2.0000   -0.4520    0.0000 C.3     1  UNL1       -0.0570
     25 C           2.4443    0.4439    0.0000 C.3     1  UNL1       -0.0570
     26 C           8.7392    1.4862    0.0000 C.2     1  UNL1       -0.0919
     27 H           4.9160    0.0790    0.0000 H       1  UNL1        0.0323
     28 H           3.0949    0.4697    0.0000 H       1  UNL1        0.0363
     29 H           5.0068   -2.1714    0.0000 H       1  UNL1        0.0741
     30 H           5.7088    0.4946    0.0000 H       1  UNL1        0.0568
     31 H           5.5058    1.2635    0.0000 H       1  UNL1        0.0568
     32 H           5.1307    1.7484    0.0000 H       1  UNL1        0.0269
     33 H           4.9586    0.9946    0.0000 H       1  UNL1        0.0269
     34 H           6.1261    1.4986    0.0000 H       1  UNL1        0.0286
     35 H           5.9638    0.7878    0.0000 H       1  UNL1        0.0286
     36 H           3.6877   -2.4464    0.0000 H       1  UNL1        0.0326
     37 H           4.4835   -2.3837    0.0000 H       1  UNL1        0.0326
     38 H           2.5137   -1.1991    0.0000 H       1  UNL1        0.0600
     39 H           3.0586    0.8032    0.0000 H       1  UNL1        0.0910
     40 H           7.3299    2.8742    0.0000 H       1  UNL1        0.0350
     41 H           6.2787    2.6499    0.0000 H       1  UNL1        0.0271
     42 H           5.5821    2.3145    0.0000 H       1  UNL1        0.0271
     43 H           1.9608    0.1668    0.0000 H       1  UNL1        0.0236
     44 H           1.3812   -0.4912    0.0000 H       1  UNL1        0.0236
     45 H           2.0392   -1.0708    0.0000 H       1  UNL1        0.0236
     46 H           2.9606    0.7872    0.0000 H       1  UNL1        0.0236
     47 H           2.1010    0.9602    0.0000 H       1  UNL1        0.0236
     48 H           1.9280    0.1006    0.0000 H       1  UNL1        0.0236
     49 H           2.2863   -2.6499    0.0000 H       1  UNL1        0.2098
     50 H           2.5997    2.2921    0.0000 H       1  UNL1        0.2125
     51 H           9.1609    1.0317    0.0000 H       1  UNL1        0.0539
     52 H           8.9219    2.0786    0.0000 H       1  UNL1        0.0539
@<TRIPOS>BOND
     1     1    11    1
     2     1    21    1
     3     2    13    1
     4     2    18    1
     5    17     3    1
     6     3    49    1
     7    18     4    1
     8     4    50    1
     9     5    21    2
    10     6    22    2
    11     7     8    1
    12     7     9    1
    13     7    11    1
    14     7    13    1
    15     8    10    1
    16     8    14    1
    17     8    27    1
    18     9    12    1
    19     9    18    1
    20     9    28    1
    21    10    15    1
    22    10    21    1
    23    10    22    1
    24    11    16    1
    25    11    29    1
    26    12    17    1
    27    12    24    1
    28    12    25    1
    29    13    30    1
    30    13    31    1
    31    14    20    1
    32    14    32    1
    33    14    33    1
    34    15    19    1
    35    15    34    1
    36    15    35    1
    37    16    17    1
    38    16    36    1
    39    16    37    1
    40    17    38    1
    41    18    39    1
    42    19    20    1
    43    19    23    1
    44    19    40    1
    45    20    41    1
    46    20    42    1
    47    22    23    1
    48    23    26    2
    49    24    43    1
    50    24    44    1
    51    24    45    1
    52    25    46    1
    53    25    47    1
    54    25    48    1
    55    26    51    1
    56    26    52    1
