@<TRIPOS>MOLECULE
IMPHY015421
 25 25 0 0 0
SMALL
GASTEIGER

@<TRIPOS>ATOM
      1 O           3.7601   -0.7694    0.0000 O.3     1  UNL1       -0.4304
      2 O           2.0000   -0.4907    0.0000 O.2     1  UNL1       -0.2501
      3 C           6.2633    0.1785    0.0000 C.3     1  UNL1       -0.0462
      4 C           7.2144   -0.1305    0.0000 C.3     1  UNL1       -0.0529
      5 C           5.5202   -0.4907    0.0000 C.3     1  UNL1        0.0053
      6 C           7.9575    0.5386    0.0000 C.3     1  UNL1       -0.0559
      7 C           4.5691   -0.1816    0.0000 C.2     1  UNL1        0.1054
      8 C           4.2601    0.7694    0.0000 C.2     1  UNL1       -0.0352
      9 C           3.2601    0.7694    0.0000 C.3     1  UNL1        0.0668
     10 C           8.9086    0.2296    0.0000 C.3     1  UNL1       -0.0653
     11 C           2.9511   -0.1816    0.0000 C.2     1  UNL1        0.3159
     12 H           6.5544    0.7259    0.0000 H       1  UNL1        0.0269
     13 H           5.7747    0.5602    0.0000 H       1  UNL1        0.0269
     14 H           6.9233   -0.6780    0.0000 H       1  UNL1        0.0265
     15 H           7.7029   -0.5122    0.0000 H       1  UNL1        0.0265
     16 H           5.2291   -1.0381    0.0000 H       1  UNL1        0.0343
     17 H           6.0087   -0.8724    0.0000 H       1  UNL1        0.0343
     18 H           8.2486    1.0860    0.0000 H       1  UNL1        0.0263
     19 H           7.4689    0.9203    0.0000 H       1  UNL1        0.0263
     20 H           4.6245    1.2710    0.0000 H       1  UNL1        0.0610
     21 H           3.3249    1.3860    0.0000 H       1  UNL1        0.0422
     22 H           2.6536    0.8983    0.0000 H       1  UNL1        0.0422
     23 H           8.7170   -0.3601    0.0000 H       1  UNL1        0.0230
     24 H           9.4982    0.0380    0.0000 H       1  UNL1        0.0230
     25 H           9.1001    0.8192    0.0000 H       1  UNL1        0.0230
@<TRIPOS>BOND
     1     1     7    1
     2     1    11    1
     3     2    11    2
     4     3     4    1
     5     3     5    1
     6     3    12    1
     7     3    13    1
     8     4     6    1
     9     4    14    1
    10     4    15    1
    11     5     7    1
    12     5    16    1
    13     5    17    1
    14     6    10    1
    15     6    18    1
    16     6    19    1
    17     7     8    2
    18     8     9    1
    19     8    20    1
    20     9    11    1
    21     9    21    1
    22     9    22    1
    23    10    23    1
    24    10    24    1
    25    10    25    1
