@<TRIPOS>MOLECULE
IMPHY013092
 83 86 0 0 0
SMALL
GASTEIGER

@<TRIPOS>ATOM
      1 O           7.6994    1.2894    0.0000 O.3     1  UNL1       -0.3860
      2 O           2.0000   -3.3289    0.0000 O.2     1  UNL1       -0.2968
      3 O          10.3448    1.3359    0.0000 O.3     1  UNL1       -0.3922
      4 C           6.5271   -1.7766    0.0000 C.3     1  UNL1       -0.0231
      5 C           7.3931   -1.2766    0.0000 C.3     1  UNL1       -0.0232
      6 C           5.6610   -1.2766    0.0000 C.3     1  UNL1       -0.0294
      7 C           7.3931   -0.2766    0.0000 C.3     1  UNL1       -0.0296
      8 C           4.7510   -1.7834    0.0000 C.3     1  UNL1       -0.0246
      9 C           4.7430   -2.8250    0.0000 C.3     1  UNL1       -0.0235
     10 C           8.3393    0.0282    0.0000 C.3     1  UNL1       -0.0066
     11 C           6.5431   -2.8181    0.0000 C.3     1  UNL1       -0.0466
     12 C           5.6610   -0.2766    0.0000 C.3     1  UNL1       -0.0489
     13 C           8.3393   -1.5813    0.0000 C.3     1  UNL1       -0.0465
     14 C           6.5271    0.2234    0.0000 C.3     1  UNL1       -0.0491
     15 C           5.6451   -3.3458    0.0000 C.3     1  UNL1       -0.0483
     16 C           8.9229   -0.7766    0.0000 C.3     1  UNL1       -0.0467
     17 C           7.1698   -2.5426    0.0000 C.3     1  UNL1       -0.0588
     18 C           3.8242   -1.2193    0.0000 C.3     1  UNL1       -0.0404
     19 C           3.8076   -3.3747    0.0000 C.3     1  UNL1        0.0267
     20 C           7.7352   -2.2162    0.0000 C.3     1  UNL1       -0.0588
     21 C           8.6500    0.9787    0.0000 C.3     1  UNL1        0.0923
     22 C           4.7587   -0.7834    0.0000 C.3     1  UNL1       -0.0590
     23 C           2.8763   -1.7473    0.0000 C.3     1  UNL1        0.0069
     24 C           2.8680   -2.8322    0.0000 C.2     1  UNL1        0.1392
     25 C           3.3109   -4.2427    0.0000 C.3     1  UNL1       -0.0528
     26 C           4.3109   -4.2388    0.0000 C.3     1  UNL1       -0.0528
     27 C           8.9606    1.9292    0.0000 C.3     1  UNL1       -0.0181
     28 C           9.6005    0.6680    0.0000 C.3     1  UNL1        0.0732
     29 C           9.9391    2.1354    0.0000 C.3     1  UNL1       -0.0318
     30 C          10.2498    3.0859    0.0000 C.2     1  UNL1       -0.0852
     31 C          11.2283    3.2922    0.0000 C.2     1  UNL1       -0.0796
     32 C          11.5390    4.2427    0.0000 C.3     1  UNL1       -0.0440
     33 C          11.8961    2.5479    0.0000 C.3     1  UNL1       -0.0440
     34 H           6.3972   -0.8516    0.0000 H       1  UNL1        0.0312
     35 H           7.4830    0.5687    0.0000 H       1  UNL1        0.0310
     36 H           4.7463   -3.6750    0.0000 H       1  UNL1        0.0315
     37 H           9.1790    0.1600    0.0000 H       1  UNL1        0.0332
     38 H           6.7612   -3.3985    0.0000 H       1  UNL1        0.0271
     39 H           7.1523   -2.7026    0.0000 H       1  UNL1        0.0271
     40 H           5.4490    0.3060    0.0000 H       1  UNL1        0.0268
     41 H           5.0504   -0.3842    0.0000 H       1  UNL1        0.0268
     42 H           8.0883   -2.1482    0.0000 H       1  UNL1        0.0271
     43 H           8.8767   -1.8905    0.0000 H       1  UNL1        0.0271
     44 H           6.9256    0.6984    0.0000 H       1  UNL1        0.0268
     45 H           6.1285    0.6984    0.0000 H       1  UNL1        0.0268
     46 H           5.2478   -3.8218    0.0000 H       1  UNL1        0.0269
     47 H           6.0460   -3.8187    0.0000 H       1  UNL1        0.0269
     48 H           9.3838   -1.1913    0.0000 H       1  UNL1        0.0269
     49 H           9.3838   -0.3618    0.0000 H       1  UNL1        0.0269
     50 H           6.6949   -2.9411    0.0000 H       1  UNL1        0.0235
     51 H           7.5684   -3.0176    0.0000 H       1  UNL1        0.0235
     52 H           7.6448   -2.1441    0.0000 H       1  UNL1        0.0235
     53 H           4.2324   -0.7527    0.0000 H       1  UNL1        0.0275
     54 H           3.4343   -0.7373    0.0000 H       1  UNL1        0.0275
     55 H           7.1526   -2.4283    0.0000 H       1  UNL1        0.0235
     56 H           7.9473   -2.7988    0.0000 H       1  UNL1        0.0235
     57 H           8.3178   -2.0041    0.0000 H       1  UNL1        0.0235
     58 H           5.3787   -0.7882    0.0000 H       1  UNL1        0.0235
     59 H           4.7635   -0.1635    0.0000 H       1  UNL1        0.0235
     60 H           4.1388   -0.7787    0.0000 H       1  UNL1        0.0235
     61 H           2.6718   -1.1620    0.0000 H       1  UNL1        0.0342
     62 H           2.2647   -1.8487    0.0000 H       1  UNL1        0.0342
     63 H           2.7728   -3.9348    0.0000 H       1  UNL1        0.0239
     64 H           3.0030   -4.7808    0.0000 H       1  UNL1        0.0239
     65 H           3.8490   -4.5506    0.0000 H       1  UNL1        0.0239
     66 H           3.7752   -4.5509    0.0000 H       1  UNL1        0.0239
     67 H           4.6230   -4.7746    0.0000 H       1  UNL1        0.0239
     68 H           4.8466   -3.9268    0.0000 H       1  UNL1        0.0239
     69 H           8.9401    2.5489    0.0000 H       1  UNL1        0.0297
     70 H           8.3468    2.0166    0.0000 H       1  UNL1        0.0297
     71 H           9.3085    0.1211    0.0000 H       1  UNL1        0.0586
     72 H          10.0884    0.2855    0.0000 H       1  UNL1        0.0586
     73 H           7.5716    1.8960    0.0000 H       1  UNL1        0.2103
     74 H           9.9597    1.5158    0.0000 H       1  UNL1        0.0308
     75 H          10.5530    2.0481    0.0000 H       1  UNL1        0.0308
     76 H          10.9341    1.1433    0.0000 H       1  UNL1        0.2095
     77 H           9.8357    3.5474    0.0000 H       1  UNL1        0.0571
     78 H          12.1283    4.0501    0.0000 H       1  UNL1        0.0274
     79 H          11.7316    4.8320    0.0000 H       1  UNL1        0.0274
     80 H          10.9496    4.4353    0.0000 H       1  UNL1        0.0274
     81 H          11.4347    2.1338    0.0000 H       1  UNL1        0.0274
     82 H          12.3102    2.0864    0.0000 H       1  UNL1        0.0274
     83 H          12.3576    2.9619    0.0000 H       1  UNL1        0.0274
@<TRIPOS>BOND
     1    21     1    1
     2     1    73    1
     3     2    24    2
     4     3    28    1
     5     3    76    1
     6     4     5    1
     7     4     6    1
     8     4    11    1
     9     4    17    1
    10     5     7    1
    11     5    13    1
    12     5    20    1
    13     6     8    1
    14     6    12    1
    15     6    34    1
    16     7    10    1
    17     7    14    1
    18     7    35    1
    19     8     9    1
    20     8    18    1
    21     8    22    1
    22     9    15    1
    23     9    19    1
    24     9    36    1
    25    10    16    1
    26    10    21    1
    27    10    37    1
    28    11    15    1
    29    11    38    1
    30    11    39    1
    31    12    14    1
    32    12    40    1
    33    12    41    1
    34    13    16    1
    35    13    42    1
    36    13    43    1
    37    14    44    1
    38    14    45    1
    39    15    46    1
    40    15    47    1
    41    16    48    1
    42    16    49    1
    43    17    50    1
    44    17    51    1
    45    17    52    1
    46    18    23    1
    47    18    53    1
    48    18    54    1
    49    19    24    1
    50    19    25    1
    51    19    26    1
    52    20    55    1
    53    20    56    1
    54    20    57    1
    55    21    27    1
    56    21    28    1
    57    22    58    1
    58    22    59    1
    59    22    60    1
    60    23    24    1
    61    23    61    1
    62    23    62    1
    63    25    63    1
    64    25    64    1
    65    25    65    1
    66    26    66    1
    67    26    67    1
    68    26    68    1
    69    27    29    1
    70    27    69    1
    71    27    70    1
    72    28    71    1
    73    28    72    1
    74    29    30    1
    75    29    74    1
    76    29    75    1
    77    30    31    2
    78    30    77    1
    79    31    32    1
    80    31    33    1
    81    32    78    1
    82    32    79    1
    83    32    80    1
    84    33    81    1
    85    33    82    1
    86    33    83    1
