@<TRIPOS>MOLECULE
IMPHY016696
 38 38 0 0 0
SMALL
GASTEIGER

@<TRIPOS>ATOM
      1 O           4.5981    1.7500    0.0000 O.3     1  UNL1       -0.4616
      2 O           2.8660    1.7500    0.0000 O.2     1  UNL1       -0.2456
      3 O           2.8660   -4.2500    0.0000 O.3     1  UNL1       -0.4951
      4 C           5.4641    4.2500    0.0000 C.3     1  UNL1       -0.0436
      5 C           5.4641    3.2500    0.0000 C.3     1  UNL1       -0.0162
      6 C           4.5981    2.7500    0.0000 C.3     1  UNL1        0.0930
      7 C           6.3301    4.7500    0.0000 C.3     1  UNL1       -0.0626
      8 C           4.5981    4.7500    0.0000 C.3     1  UNL1       -0.0626
      9 C           3.7320    1.2500    0.0000 C.2     1  UNL1        0.3319
     10 C           2.8660   -1.2500    0.0000 C.ar    1  UNL1       -0.0246
     11 C           3.7320    0.2500    0.0000 C.2     1  UNL1        0.0231
     12 C           2.8660   -0.2500    0.0000 C.2     1  UNL1       -0.0478
     13 C           3.7320   -1.7500    0.0000 C.ar    1  UNL1       -0.0511
     14 C           2.0000   -1.7500    0.0000 C.ar    1  UNL1       -0.0511
     15 C           2.8660   -3.2500    0.0000 C.ar    1  UNL1        0.1201
     16 C           3.7320   -2.7500    0.0000 C.ar    1  UNL1       -0.0194
     17 C           2.0000   -2.7500    0.0000 C.ar    1  UNL1       -0.0194
     18 C           2.0000   -4.7500    0.0000 C.3     1  UNL1        0.0788
     19 H           5.4641    4.8700    0.0000 H       1  UNL1        0.0297
     20 H           5.6762    2.6674    0.0000 H       1  UNL1        0.0300
     21 H           6.0747    3.3577    0.0000 H       1  UNL1        0.0300
     22 H           4.3860    3.3326    0.0000 H       1  UNL1        0.0697
     23 H           3.9875    2.6423    0.0000 H       1  UNL1        0.0697
     24 H           6.6401    4.2131    0.0000 H       1  UNL1        0.0232
     25 H           6.8671    5.0600    0.0000 H       1  UNL1        0.0232
     26 H           6.0201    5.2869    0.0000 H       1  UNL1        0.0232
     27 H           4.9081    5.2869    0.0000 H       1  UNL1        0.0232
     28 H           4.0611    5.0600    0.0000 H       1  UNL1        0.0232
     29 H           4.2881    4.2131    0.0000 H       1  UNL1        0.0232
     30 H           4.2690   -0.0600    0.0000 H       1  UNL1        0.0689
     31 H           2.3291    0.0600    0.0000 H       1  UNL1        0.0626
     32 H           4.2690   -1.4400    0.0000 H       1  UNL1        0.0625
     33 H           1.4631   -1.4400    0.0000 H       1  UNL1        0.0625
     34 H           4.2690   -3.0600    0.0000 H       1  UNL1        0.0654
     35 H           1.4631   -3.0600    0.0000 H       1  UNL1        0.0654
     36 H           1.6900   -4.2131    0.0000 H       1  UNL1        0.0660
     37 H           1.4631   -5.0600    0.0000 H       1  UNL1        0.0660
     38 H           2.3100   -5.2869    0.0000 H       1  UNL1        0.0660
@<TRIPOS>BOND
     1     1     6    1
     2     1     9    1
     3     2     9    2
     4     3    15    1
     5     3    18    1
     6     4     5    1
     7     4     7    1
     8     4     8    1
     9     4    19    1
    10     5     6    1
    11     5    20    1
    12     5    21    1
    13     6    22    1
    14     6    23    1
    15     7    24    1
    16     7    25    1
    17     7    26    1
    18     8    27    1
    19     8    28    1
    20     8    29    1
    21     9    11    1
    22    10    12    1
    23    10    13   ar
    24    10    14   ar
    25    11    12    2
    26    11    30    1
    27    12    31    1
    28    13    16   ar
    29    13    32    1
    30    14    17   ar
    31    14    33    1
    32    15    16   ar
    33    15    17   ar
    34    16    34    1
    35    17    35    1
    36    18    36    1
    37    18    37    1
    38    18    38    1
