@<TRIPOS>MOLECULE
IMPHY001830
 32 35 0 0 0
SMALL
GASTEIGER

@<TRIPOS>ATOM
      1 N           2.9180    0.3137    0.0000 N.ar    1  UNL1       -0.1962
      2 C           2.0080   -0.1931    0.0000 C.3     1  UNL1        0.1550
      3 C           2.0000   -1.2347    0.0000 C.3     1  UNL1        0.0329
      4 C           3.7841   -0.1863    0.0000 C.ar    1  UNL1        0.2157
      5 C           2.9021   -1.7555    0.0000 C.ar    1  UNL1       -0.0280
      6 C           3.8001   -1.2278    0.0000 C.ar    1  UNL1        0.0496
      7 C           2.9180    1.3137    0.0000 C.ar    1  UNL1        0.1795
      8 C           4.6501    0.3137    0.0000 C.ar    1  UNL1        0.0182
      9 C           3.7841    1.8137    0.0000 C.ar    1  UNL1        0.0458
     10 C           4.6501    1.3137    0.0000 C.ar    1  UNL1       -0.0060
     11 C           2.8937   -2.8405    0.0000 C.ar    1  UNL1       -0.0576
     12 C           4.7520   -1.7484    0.0000 C.ar    1  UNL1       -0.0480
     13 C           3.7680    2.8552    0.0000 C.ar    1  UNL1       -0.0484
     14 C           5.5601    1.8206    0.0000 C.ar    1  UNL1       -0.0536
     15 C           3.8334   -3.3830    0.0000 C.ar    1  UNL1       -0.0615
     16 C           4.7688   -2.8333    0.0000 C.ar    1  UNL1       -0.0610
     17 C           4.6660    3.3830    0.0000 C.ar    1  UNL1       -0.0610
     18 C           5.5681    2.8622    0.0000 C.ar    1  UNL1       -0.0612
     19 H           1.8035    0.3922    0.0000 H       1  UNL1        0.1034
     20 H           1.3964   -0.2945    0.0000 H       1  UNL1        0.1034
     21 H           1.3900   -1.1239    0.0000 H       1  UNL1        0.0375
     22 H           1.7864   -1.8168    0.0000 H       1  UNL1        0.0375
     23 H           2.3811    1.6237    0.0000 H       1  UNL1        0.1383
     24 H           5.1870    0.0037    0.0000 H       1  UNL1        0.0690
     25 H           2.3556   -3.1484    0.0000 H       1  UNL1        0.0621
     26 H           5.2829   -1.4281    0.0000 H       1  UNL1        0.0626
     27 H           3.2275    3.1590    0.0000 H       1  UNL1        0.0626
     28 H           6.0934    1.5044    0.0000 H       1  UNL1        0.0624
     29 H           3.8357   -4.0030    0.0000 H       1  UNL1        0.0618
     30 H           5.3093   -3.1370    0.0000 H       1  UNL1        0.0618
     31 H           4.6636    4.0030    0.0000 H       1  UNL1        0.0618
     32 H           6.1062    3.1701    0.0000 H       1  UNL1        0.0618
@<TRIPOS>UNITY_ATOM_ATTR
1 1
charge 1
@<TRIPOS>BOND
     1     1     2    1
     2     1     4   ar
     3     1     7   ar
     4     2     3    1
     5     2    19    1
     6     2    20    1
     7     3     5    1
     8     3    21    1
     9     3    22    1
    10     4     6    1
    11     4     8   ar
    12     5     6   ar
    13     5    11   ar
    14     6    12   ar
    15     7     9   ar
    16     7    23    1
    17     8    10   ar
    18     8    24    1
    19     9    10   ar
    20     9    13   ar
    21    10    14   ar
    22    11    15   ar
    23    11    25    1
    24    12    16   ar
    25    12    26    1
    26    13    17   ar
    27    13    27    1
    28    14    18   ar
    29    14    28    1
    30    15    16   ar
    31    15    29    1
    32    16    30    1
    33    17    18   ar
    34    17    31    1
    35    18    32    1
