@<TRIPOS>MOLECULE
IMPHY013110
 22 21 0 0 0
SMALL
GASTEIGER

@<TRIPOS>ATOM
      1 O           8.0622   -0.2500    0.0000 O.2     1  UNL1       -0.5146
      2 C           3.7320    0.2500    0.0000 C.3     1  UNL1       -0.0530
      3 C           4.5981   -0.2500    0.0000 C.3     1  UNL1       -0.0495
      4 C           2.8660   -0.2500    0.0000 C.3     1  UNL1       -0.0559
      5 C           5.4641    0.2500    0.0000 C.3     1  UNL1       -0.0316
      6 C           2.0000    0.2500    0.0000 C.3     1  UNL1       -0.0653
      7 C           6.3301   -0.2500    0.0000 C.2     1  UNL1       -0.0499
      8 C           7.1962    0.2500    0.0000 C.2     1  UNL1        0.0769
      9 H           4.1306    0.7249    0.0000 H       1  UNL1        0.0265
     10 H           3.3335    0.7249    0.0000 H       1  UNL1        0.0265
     11 H           4.1996   -0.7249    0.0000 H       1  UNL1        0.0268
     12 H           4.9966   -0.7249    0.0000 H       1  UNL1        0.0268
     13 H           2.4675   -0.7249    0.0000 H       1  UNL1        0.0263
     14 H           3.2646   -0.7249    0.0000 H       1  UNL1        0.0263
     15 H           5.8626    0.7249    0.0000 H       1  UNL1        0.0308
     16 H           5.0656    0.7249    0.0000 H       1  UNL1        0.0308
     17 H           2.3100    0.7869    0.0000 H       1  UNL1        0.0230
     18 H           1.4631    0.5600    0.0000 H       1  UNL1        0.0230
     19 H           1.6900   -0.2869    0.0000 H       1  UNL1        0.0230
     20 H           6.3301   -0.8700    0.0000 H       1  UNL1        0.0602
     21 H           7.1962    0.8700    0.0000 H       1  UNL1        0.1017
     22 H           8.5991    0.0600    0.0000 H       1  UNL1        0.2912
@<TRIPOS>BOND
     1     1     8    1
     2     1    22    1
     3     2     3    1
     4     2     4    1
     5     2     9    1
     6     2    10    1
     7     3     5    1
     8     3    11    1
     9     3    12    1
    10     4     6    1
    11     4    13    1
    12     4    14    1
    13     5     7    1
    14     5    15    1
    15     5    16    1
    16     6    17    1
    17     6    18    1
    18     6    19    1
    19     7     8    2
    20     7    20    1
    21     8    21    1
