@<TRIPOS>MOLECULE
IMPHY012413
 65 67 0 0 0
SMALL
GASTEIGER

@<TRIPOS>ATOM
      1 O           4.5981    1.4050    0.0000 O.3     1  UNL1       -0.3290
      2 O           5.4641   -1.0950    0.0000 O.3     1  UNL1       -0.3097
      3 O           3.7320   -1.0950    0.0000 O.3     1  UNL1       -0.3829
      4 O           4.5981   -1.5950    0.0000 O.3     1  UNL1       -0.3833
      5 O           6.3301    0.4050    0.0000 O.3     1  UNL1       -0.3579
      6 O           7.1962   -1.0950    0.0000 O.3     1  UNL1       -0.3404
      7 O           6.3301    1.4050    0.0000 O.3     1  UNL1       -0.4579
      8 O           2.8660    2.4050    0.0000 O.3     1  UNL1       -0.3924
      9 O           5.4641   -3.0950    0.0000 O.3     1  UNL1       -0.3841
     10 O           7.1962   -4.0950    0.0000 O.3     1  UNL1       -0.3864
     11 O           8.9282   -3.0950    0.0000 O.3     1  UNL1       -0.3865
     12 O           9.7942   -1.5950    0.0000 O.3     1  UNL1       -0.3924
     13 C           3.7320   -0.0950    0.0000 C.3     1  UNL1        0.1275
     14 C           4.5981   -0.5950    0.0000 C.3     1  UNL1        0.1463
     15 C           5.4641   -0.0950    0.0000 C.3     1  UNL1        0.2633
     16 C           3.7320    0.9050    0.0000 C.3     1  UNL1        0.1172
     17 C           2.8660    0.4050    0.0000 C.3     1  UNL1       -0.0126
     18 C           5.4641    0.9050    0.0000 C.3     1  UNL1        0.2592
     19 C           6.3301   -1.5950    0.0000 C.3     1  UNL1        0.1914
     20 C           2.8660    1.4050    0.0000 C.3     1  UNL1        0.0733
     21 C           6.3301   -2.5950    0.0000 C.3     1  UNL1        0.1342
     22 C           2.0000   -0.0950    0.0000 C.3     1  UNL1       -0.0599
     23 C           2.0000    0.9050    0.0000 C.3     1  UNL1       -0.0599
     24 C           7.1962   -3.0950    0.0000 C.3     1  UNL1        0.1141
     25 C           8.0622   -2.5950    0.0000 C.3     1  UNL1        0.1119
     26 C           8.0622   -1.5950    0.0000 C.3     1  UNL1        0.1130
     27 C           8.9282   -1.0950    0.0000 C.3     1  UNL1        0.0730
     28 C           6.3301    2.4050    0.0000 C.ar    1  UNL1        0.1241
     29 C           7.1962    2.9050    0.0000 C.ar    1  UNL1       -0.0198
     30 C           5.4641    2.9050    0.0000 C.ar    1  UNL1       -0.0198
     31 C           7.1962    3.9050    0.0000 C.ar    1  UNL1       -0.0583
     32 C           5.4641    3.9050    0.0000 C.ar    1  UNL1       -0.0583
     33 C           6.3301    4.4050    0.0000 C.ar    1  UNL1       -0.0615
     34 H           4.0611   -0.9050    0.0000 H       1  UNL1        0.0679
     35 H           3.7320    1.5250    0.0000 H       1  UNL1        0.0650
     36 H           3.1760    0.9419    0.0000 H       1  UNL1        0.0325
     37 H           5.4641    1.5250    0.0000 H       1  UNL1        0.1114
     38 H           6.3301   -0.9750    0.0000 H       1  UNL1        0.0939
     39 H           2.2554    1.5127    0.0000 H       1  UNL1        0.0584
     40 H           2.6540    0.8224    0.0000 H       1  UNL1        0.0584
     41 H           6.3301   -3.2150    0.0000 H       1  UNL1        0.0671
     42 H           1.6900    0.4419    0.0000 H       1  UNL1        0.0233
     43 H           1.4631   -0.4050    0.0000 H       1  UNL1        0.0233
     44 H           2.3100   -0.6319    0.0000 H       1  UNL1        0.0233
     45 H           2.3100    1.4419    0.0000 H       1  UNL1        0.0233
     46 H           1.4631    1.2150    0.0000 H       1  UNL1        0.0233
     47 H           1.6900    0.3681    0.0000 H       1  UNL1        0.0233
     48 H           3.1951   -1.4050    0.0000 H       1  UNL1        0.2104
     49 H           6.6592   -3.4050    0.0000 H       1  UNL1        0.0648
     50 H           8.0622   -3.2150    0.0000 H       1  UNL1        0.0647
     51 H           4.0611   -1.9050    0.0000 H       1  UNL1        0.2101
     52 H           8.0622   -0.9750    0.0000 H       1  UNL1        0.0647
     53 H           6.8671    0.0950    0.0000 H       1  UNL1        0.2130
     54 H           9.3267   -0.6201    0.0000 H       1  UNL1        0.0584
     55 H           8.5297   -0.6201    0.0000 H       1  UNL1        0.0584
     56 H           2.3291    2.7150    0.0000 H       1  UNL1        0.2095
     57 H           5.4641   -3.7150    0.0000 H       1  UNL1        0.2101
     58 H           7.7331   -4.4050    0.0000 H       1  UNL1        0.2100
     59 H           8.9282   -3.7150    0.0000 H       1  UNL1        0.2100
     60 H           7.7331    2.5950    0.0000 H       1  UNL1        0.0654
     61 H           4.9272    2.5950    0.0000 H       1  UNL1        0.0654
     62 H          10.3312   -1.2850    0.0000 H       1  UNL1        0.2095
     63 H           7.7331    4.2150    0.0000 H       1  UNL1        0.0619
     64 H           4.9272    4.2150    0.0000 H       1  UNL1        0.0619
     65 H           6.3301    5.0250    0.0000 H       1  UNL1        0.0618
@<TRIPOS>BOND
     1     1    16    1
     2     1    18    1
     3     2    15    1
     4    19     2    1
     5    13     3    1
     6     3    48    1
     7    14     4    1
     8     4    51    1
     9    15     5    1
    10     5    53    1
    11     6    19    1
    12     6    26    1
    13    18     7    1
    14     7    28    1
    15     8    20    1
    16     8    56    1
    17    21     9    1
    18     9    57    1
    19    24    10    1
    20    10    58    1
    21    25    11    1
    22    11    59    1
    23    12    27    1
    24    12    62    1
    25    13    14    1
    26    13    16    1
    27    13    17    1
    28    14    15    1
    29    14    34    1
    30    15    18    1
    31    16    20    1
    32    16    35    1
    33    17    22    1
    34    17    23    1
    35    17    36    1
    36    18    37    1
    37    19    21    1
    38    19    38    1
    39    20    39    1
    40    20    40    1
    41    21    24    1
    42    21    41    1
    43    22    42    1
    44    22    43    1
    45    22    44    1
    46    23    45    1
    47    23    46    1
    48    23    47    1
    49    24    25    1
    50    24    49    1
    51    25    26    1
    52    25    50    1
    53    26    27    1
    54    26    52    1
    55    27    54    1
    56    27    55    1
    57    28    29   ar
    58    28    30   ar
    59    29    31   ar
    60    29    60    1
    61    30    32   ar
    62    30    61    1
    63    31    33   ar
    64    31    63    1
    65    32    33   ar
    66    32    64    1
    67    33    65    1
