@<TRIPOS>MOLECULE
IMPHY007451
 43 44 0 0 0
SMALL
GASTEIGER

@<TRIPOS>ATOM
      1 O           6.0010    0.7890    0.0000 O.3     1  UNL1       -0.4530
      2 O           5.5010    4.6550    0.0000 O.3     1  UNL1       -0.3772
      3 O           4.2690    1.7890    0.0000 O.3     1  UNL1       -0.3879
      4 O           7.7331    1.7890    0.0000 O.3     1  UNL1       -0.3879
      5 O           7.5010    4.6550    0.0000 O.3     1  UNL1       -0.4786
      6 O           6.0010    5.5210    0.0000 O.2     1  UNL1       -0.2478
      7 O           4.2690    0.7890    0.0000 O.2     1  UNL1       -0.2456
      8 O           2.5369   -4.2110    0.0000 O.3     1  UNL1       -0.5033
      9 O           4.2690   -5.2110    0.0000 O.3     1  UNL1       -0.5033
     10 C           6.0010    3.7890    0.0000 C.3     1  UNL1        0.1667
     11 C           6.0010    1.7890    0.0000 C.3     1  UNL1        0.1549
     12 C           5.1350    3.2890    0.0000 C.3     1  UNL1        0.0162
     13 C           6.8671    3.2890    0.0000 C.3     1  UNL1        0.0162
     14 C           5.1350    2.2890    0.0000 C.3     1  UNL1        0.0977
     15 C           6.8671    2.2890    0.0000 C.3     1  UNL1        0.0977
     16 C           6.5010    4.6550    0.0000 C.2     1  UNL1        0.3369
     17 C           5.1350    0.2890    0.0000 C.2     1  UNL1        0.3324
     18 C           5.1350   -0.7110    0.0000 C.2     1  UNL1        0.0231
     19 C           4.2690   -1.2110    0.0000 C.2     1  UNL1       -0.0477
     20 C           4.2690   -2.2110    0.0000 C.ar    1  UNL1       -0.0211
     21 C           3.4030   -2.7110    0.0000 C.ar    1  UNL1       -0.0094
     22 C           5.1350   -2.7110    0.0000 C.ar    1  UNL1       -0.0509
     23 C           3.4030   -3.7110    0.0000 C.ar    1  UNL1        0.1588
     24 C           5.1350   -3.7110    0.0000 C.ar    1  UNL1       -0.0160
     25 C           4.2690   -4.2110    0.0000 C.ar    1  UNL1        0.1582
     26 H           6.5380    1.4790    0.0000 H       1  UNL1        0.0786
     27 H           4.9230    3.8716    0.0000 H       1  UNL1        0.0325
     28 H           4.5244    3.1813    0.0000 H       1  UNL1        0.0325
     29 H           7.4776    3.1813    0.0000 H       1  UNL1        0.0325
     30 H           7.0791    3.8716    0.0000 H       1  UNL1        0.0325
     31 H           5.1350    1.6690    0.0000 H       1  UNL1        0.0632
     32 H           7.4040    2.5990    0.0000 H       1  UNL1        0.0632
     33 H           4.8810    4.6550    0.0000 H       1  UNL1        0.2109
     34 H           3.7320    2.0990    0.0000 H       1  UNL1        0.2099
     35 H           8.2700    2.0990    0.0000 H       1  UNL1        0.2099
     36 H           7.8110    5.1919    0.0000 H       1  UNL1        0.2951
     37 H           5.6720   -1.0210    0.0000 H       1  UNL1        0.0689
     38 H           3.7320   -0.9010    0.0000 H       1  UNL1        0.0626
     39 H           2.8660   -2.4010    0.0000 H       1  UNL1        0.0661
     40 H           5.6720   -2.4010    0.0000 H       1  UNL1        0.0625
     41 H           5.6720   -4.0210    0.0000 H       1  UNL1        0.0655
     42 H           2.0000   -3.9010    0.0000 H       1  UNL1        0.2923
     43 H           4.8059   -5.5210    0.0000 H       1  UNL1        0.2923
@<TRIPOS>BOND
     1     1    11    1
     2     1    17    1
     3     2    10    1
     4     2    33    1
     5    14     3    1
     6     3    34    1
     7    15     4    1
     8     4    35    1
     9     5    16    1
    10     5    36    1
    11     6    16    2
    12     7    17    2
    13     8    23    1
    14     8    42    1
    15     9    25    1
    16     9    43    1
    17    10    12    1
    18    10    13    1
    19    10    16    1
    20    11    14    1
    21    11    15    1
    22    11    26    1
    23    12    14    1
    24    12    27    1
    25    12    28    1
    26    13    15    1
    27    13    29    1
    28    13    30    1
    29    14    31    1
    30    15    32    1
    31    17    18    1
    32    18    19    2
    33    18    37    1
    34    19    20    1
    35    19    38    1
    36    20    21   ar
    37    20    22   ar
    38    21    23   ar
    39    21    39    1
    40    22    24   ar
    41    22    40    1
    42    23    25   ar
    43    24    25   ar
    44    24    41    1
