@<TRIPOS>MOLECULE
IMPHY010901
 34 35 0 0 0
SMALL
GASTEIGER

@<TRIPOS>ATOM
      1 O           2.8660    1.8176    0.0000 O.3     1  UNL1       -0.3947
      2 N           2.8660   -1.1824    0.0000 N.3     1  UNL1       -0.3047
      3 C           4.5981   -0.1824    0.0000 C.3     1  UNL1       -0.0307
      4 C           4.5981   -1.1824    0.0000 C.3     1  UNL1       -0.0225
      5 C           5.5443   -1.4871    0.0000 C.3     1  UNL1       -0.0396
      6 C           3.7320    0.3176    0.0000 C.3     1  UNL1       -0.0019
      7 C           5.5443    0.1224    0.0000 C.3     1  UNL1       -0.0493
      8 C           6.1279   -0.6824    0.0000 C.3     1  UNL1       -0.0499
      9 C           3.7320   -1.6824    0.0000 C.3     1  UNL1        0.0019
     10 C           2.8660   -0.1824    0.0000 C.3     1  UNL1        0.0038
     11 C           5.8550   -2.4376    0.0000 C.3     1  UNL1       -0.0621
     12 C           3.7320    1.3176    0.0000 C.3     1  UNL1        0.0484
     13 C           2.0000   -1.6824    0.0000 C.3     1  UNL1       -0.0127
     14 H           4.6880    0.6629    0.0000 H       1  UNL1        0.0308
     15 H           4.6880   -2.0276    0.0000 H       1  UNL1        0.0318
     16 H           4.9446   -2.0894    0.0000 H       1  UNL1        0.0301
     17 H           4.4682    0.7426    0.0000 H       1  UNL1        0.0338
     18 H           6.0817    0.4316    0.0000 H       1  UNL1        0.0268
     19 H           5.2933    0.6893    0.0000 H       1  UNL1        0.0268
     20 H           6.5888   -1.0971    0.0000 H       1  UNL1        0.0268
     21 H           6.5888   -0.2676    0.0000 H       1  UNL1        0.0268
     22 H           3.3335   -2.1573    0.0000 H       1  UNL1        0.0429
     23 H           4.1306   -2.1573    0.0000 H       1  UNL1        0.0429
     24 H           2.6540    0.4002    0.0000 H       1  UNL1        0.0430
     25 H           2.2554   -0.2900    0.0000 H       1  UNL1        0.0430
     26 H           5.2656   -2.6302    0.0000 H       1  UNL1        0.0233
     27 H           6.0476   -3.0269    0.0000 H       1  UNL1        0.0233
     28 H           6.4443   -2.2450    0.0000 H       1  UNL1        0.0233
     29 H           4.3426    1.2100    0.0000 H       1  UNL1        0.0560
     30 H           3.9441    1.9002    0.0000 H       1  UNL1        0.0560
     31 H           1.6900   -1.1454    0.0000 H       1  UNL1        0.0391
     32 H           1.4631   -1.9924    0.0000 H       1  UNL1        0.0391
     33 H           2.3100   -2.2193    0.0000 H       1  UNL1        0.0391
     34 H           2.8660    2.4376    0.0000 H       1  UNL1        0.2094
@<TRIPOS>BOND
     1     1    12    1
     2     1    34    1
     3     2     9    1
     4     2    10    1
     5     2    13    1
     6     3     4    1
     7     3     6    1
     8     3     7    1
     9     3    14    1
    10     4     5    1
    11     4     9    1
    12     4    15    1
    13     5     8    1
    14     5    11    1
    15     5    16    1
    16     6    10    1
    17     6    12    1
    18     6    17    1
    19     7     8    1
    20     7    18    1
    21     7    19    1
    22     8    20    1
    23     8    21    1
    24     9    22    1
    25     9    23    1
    26    10    24    1
    27    10    25    1
    28    11    26    1
    29    11    27    1
    30    11    28    1
    31    12    29    1
    32    12    30    1
    33    13    31    1
    34    13    32    1
    35    13    33    1
