@<TRIPOS>MOLECULE
IMPHY011720
 53 53 0 0 0
SMALL
GASTEIGER

@<TRIPOS>ATOM
      1 O          13.4292   -1.1830    0.0000 O.3     1  UNL1       -0.3679
      2 O           2.5369   -0.3170    0.0000 O.3     1  UNL1       -0.4806
      3 O           3.4030    1.1830    0.0000 O.2     1  UNL1       -0.2510
      4 C          13.9292   -0.3170    0.0000 C.3     1  UNL1        0.0855
      5 C          12.9292   -0.3170    0.0000 C.3     1  UNL1        0.0886
      6 C          14.7953    0.1830    0.0000 C.3     1  UNL1       -0.0241
      7 C          12.0632    0.1830    0.0000 C.3     1  UNL1       -0.0059
      8 C          15.6613   -0.3170    0.0000 C.3     1  UNL1       -0.0506
      9 C          16.5273    0.1830    0.0000 C.3     1  UNL1       -0.0532
     10 C          11.1972   -0.3170    0.0000 C.2     1  UNL1       -0.0854
     11 C          17.3933   -0.3170    0.0000 C.3     1  UNL1       -0.0559
     12 C          10.3312    0.1830    0.0000 C.2     1  UNL1       -0.0878
     13 C           9.4651   -0.3170    0.0000 C.3     1  UNL1       -0.0348
     14 C           8.5991    0.1830    0.0000 C.3     1  UNL1       -0.0496
     15 C           7.7331   -0.3170    0.0000 C.3     1  UNL1       -0.0528
     16 C           6.8671    0.1830    0.0000 C.3     1  UNL1       -0.0530
     17 C           6.0010   -0.3170    0.0000 C.3     1  UNL1       -0.0526
     18 C          18.2594    0.1830    0.0000 C.3     1  UNL1       -0.0653
     19 C           5.1350    0.1830    0.0000 C.3     1  UNL1       -0.0430
     20 C           4.2690   -0.3170    0.0000 C.3     1  UNL1        0.0448
     21 C           3.4030    0.1830    0.0000 C.2     1  UNL1        0.3047
     22 H          14.5303   -0.9180    0.0000 H       1  UNL1        0.0622
     23 H          12.3282   -0.9180    0.0000 H       1  UNL1        0.0625
     24 H          15.1938    0.6580    0.0000 H       1  UNL1        0.0291
     25 H          14.3967    0.6580    0.0000 H       1  UNL1        0.0291
     26 H          12.4617    0.6580    0.0000 H       1  UNL1        0.0333
     27 H          11.6647    0.6580    0.0000 H       1  UNL1        0.0333
     28 H          15.2628   -0.7919    0.0000 H       1  UNL1        0.0266
     29 H          16.0598   -0.7919    0.0000 H       1  UNL1        0.0266
     30 H          16.9258    0.6580    0.0000 H       1  UNL1        0.0265
     31 H          16.1288    0.6580    0.0000 H       1  UNL1        0.0265
     32 H          11.1972   -0.9370    0.0000 H       1  UNL1        0.0570
     33 H          16.9948   -0.7919    0.0000 H       1  UNL1        0.0263
     34 H          17.7919   -0.7919    0.0000 H       1  UNL1        0.0263
     35 H          10.3312    0.8030    0.0000 H       1  UNL1        0.0569
     36 H           9.0666   -0.7919    0.0000 H       1  UNL1        0.0307
     37 H           9.8637   -0.7919    0.0000 H       1  UNL1        0.0307
     38 H           8.9976    0.6580    0.0000 H       1  UNL1        0.0268
     39 H           8.2006    0.6580    0.0000 H       1  UNL1        0.0268
     40 H           7.3346   -0.7919    0.0000 H       1  UNL1        0.0265
     41 H           8.1316   -0.7919    0.0000 H       1  UNL1        0.0265
     42 H           7.2656    0.6580    0.0000 H       1  UNL1        0.0265
     43 H           6.4685    0.6580    0.0000 H       1  UNL1        0.0265
     44 H           5.6025   -0.7919    0.0000 H       1  UNL1        0.0265
     45 H           6.3996   -0.7919    0.0000 H       1  UNL1        0.0265
     46 H          18.5694   -0.3539    0.0000 H       1  UNL1        0.0230
     47 H          18.7963    0.4930    0.0000 H       1  UNL1        0.0230
     48 H          17.9494    0.7199    0.0000 H       1  UNL1        0.0230
     49 H           5.5335    0.6580    0.0000 H       1  UNL1        0.0270
     50 H           4.7365    0.6580    0.0000 H       1  UNL1        0.0270
     51 H           3.8705   -0.7919    0.0000 H       1  UNL1        0.0377
     52 H           4.6675   -0.7919    0.0000 H       1  UNL1        0.0377
     53 H           2.0000   -0.0070    0.0000 H       1  UNL1        0.2951
@<TRIPOS>BOND
     1     1     4    1
     2     1     5    1
     3     2    21    1
     4     2    53    1
     5     3    21    2
     6     4     5    1
     7     4     6    1
     8     4    22    1
     9     5     7    1
    10     5    23    1
    11     6     8    1
    12     6    24    1
    13     6    25    1
    14     7    10    1
    15     7    26    1
    16     7    27    1
    17     8     9    1
    18     8    28    1
    19     8    29    1
    20     9    11    1
    21     9    30    1
    22     9    31    1
    23    10    12    2
    24    10    32    1
    25    11    18    1
    26    11    33    1
    27    11    34    1
    28    12    13    1
    29    12    35    1
    30    13    14    1
    31    13    36    1
    32    13    37    1
    33    14    15    1
    34    14    38    1
    35    14    39    1
    36    15    16    1
    37    15    40    1
    38    15    41    1
    39    16    17    1
    40    16    42    1
    41    16    43    1
    42    17    19    1
    43    17    44    1
    44    17    45    1
    45    18    46    1
    46    18    47    1
    47    18    48    1
    48    19    20    1
    49    19    49    1
    50    19    50    1
    51    20    21    1
    52    20    51    1
    53    20    52    1
