@<TRIPOS>MOLECULE
IMPHY004217
 40 42 0 0 0
SMALL
GASTEIGER

@<TRIPOS>ATOM
      1 O           4.5981    0.9400    0.0000 O.2     1  UNL1       -0.2706
      2 O          10.7404    1.2447    0.0000 O.3     1  UNL1       -0.4526
      3 O          10.7404   -0.3647    0.0000 O.3     1  UNL1       -0.4526
      4 N           3.7320   -0.5600    0.0000 N.am    1  UNL1       -0.2980
      5 C           2.0000   -1.5600    0.0000 C.3     1  UNL1       -0.0502
      6 C           2.8660   -2.0600    0.0000 C.3     1  UNL1       -0.0371
      7 C           2.0000   -0.5600    0.0000 C.3     1  UNL1       -0.0371
      8 C           3.7320   -1.5600    0.0000 C.3     1  UNL1        0.0150
      9 C           2.8660   -0.0600    0.0000 C.3     1  UNL1        0.0150
     10 C           4.5981   -0.0600    0.0000 C.2     1  UNL1        0.2394
     11 C           5.4641   -0.5600    0.0000 C.2     1  UNL1        0.0003
     12 C           6.3301   -0.0600    0.0000 C.2     1  UNL1       -0.0568
     13 C           9.7942    0.9400    0.0000 C.ar    1  UNL1        0.1668
     14 C           8.0622    0.9400    0.0000 C.ar    1  UNL1       -0.0213
     15 C           9.7942   -0.0600    0.0000 C.ar    1  UNL1        0.1663
     16 C           8.9282    1.4400    0.0000 C.ar    1  UNL1       -0.0090
     17 C           6.3301    0.9400    0.0000 C.2     1  UNL1       -0.0610
     18 C           7.1962    1.4400    0.0000 C.2     1  UNL1       -0.0545
     19 C           8.0622   -0.0600    0.0000 C.ar    1  UNL1       -0.0509
     20 C           8.9282   -0.5600    0.0000 C.ar    1  UNL1       -0.0156
     21 C          11.3241    0.4400    0.0000 C.3     1  UNL1        0.2332
     22 H           1.3894   -1.4523    0.0000 H       1  UNL1        0.0266
     23 H           1.7880   -2.1426    0.0000 H       1  UNL1        0.0266
     24 H           2.4675   -2.5349    0.0000 H       1  UNL1        0.0280
     25 H           3.2646   -2.5349    0.0000 H       1  UNL1        0.0280
     26 H           1.7880    0.0226    0.0000 H       1  UNL1        0.0280
     27 H           1.3894   -0.6677    0.0000 H       1  UNL1        0.0280
     28 H           3.9441   -2.1426    0.0000 H       1  UNL1        0.0464
     29 H           4.3426   -1.4523    0.0000 H       1  UNL1        0.0464
     30 H           3.2646    0.4149    0.0000 H       1  UNL1        0.0464
     31 H           2.4675    0.4149    0.0000 H       1  UNL1        0.0464
     32 H           5.4641   -1.1800    0.0000 H       1  UNL1        0.0669
     33 H           6.8671   -0.3700    0.0000 H       1  UNL1        0.0619
     34 H           8.9282    2.0600    0.0000 H       1  UNL1        0.0661
     35 H           5.7932    1.2500    0.0000 H       1  UNL1        0.0618
     36 H           7.5252   -0.3700    0.0000 H       1  UNL1        0.0625
     37 H           7.1962    2.0600    0.0000 H       1  UNL1        0.0623
     38 H           8.9282   -1.1800    0.0000 H       1  UNL1        0.0655
     39 H          11.7849    0.0253    0.0000 H       1  UNL1        0.1166
     40 H          11.7849    0.8547    0.0000 H       1  UNL1        0.1166
@<TRIPOS>BOND
     1     1    10    2
     2     2    13    1
     3     2    21    1
     4     3    15    1
     5     3    21    1
     6     4     8    1
     7     4     9    1
     8     4    10   am
     9     5     6    1
    10     5     7    1
    11     5    22    1
    12     5    23    1
    13     6     8    1
    14     6    24    1
    15     6    25    1
    16     7     9    1
    17     7    26    1
    18     7    27    1
    19     8    28    1
    20     8    29    1
    21     9    30    1
    22     9    31    1
    23    10    11    1
    24    11    12    2
    25    11    32    1
    26    12    17    1
    27    12    33    1
    28    13    15   ar
    29    13    16   ar
    30    14    16   ar
    31    14    18    1
    32    14    19   ar
    33    15    20   ar
    34    16    34    1
    35    17    18    2
    36    17    35    1
    37    18    37    1
    38    19    20   ar
    39    19    36    1
    40    20    38    1
    41    21    39    1
    42    21    40    1
