@<TRIPOS>MOLECULE
IMPHY012735
 39 40 0 0 0
SMALL
GASTEIGER

@<TRIPOS>ATOM
      1 O           3.5836   -0.0547    0.0000 O.3     1  UNL1       -0.4532
      2 O           5.3958    2.7500    0.0000 O.3     1  UNL1       -0.3907
      3 O           2.0000    0.7500    0.0000 O.2     1  UNL1       -0.2453
      4 O           4.5298   -2.7500    0.0000 O.3     1  UNL1       -0.3907
      5 C           4.5298    1.2500    0.0000 C.3     1  UNL1        0.0573
      6 C           4.5298    0.2500    0.0000 C.3     1  UNL1        0.1312
      7 C           5.3958    1.7500    0.0000 C.3     1  UNL1        0.0696
      8 C           6.2619    1.2500    0.0000 C.3     1  UNL1       -0.0052
      9 C           3.5836    1.5547    0.0000 C.2     1  UNL1        0.0389
     10 C           5.3958   -0.2500    0.0000 C.2     1  UNL1       -0.0419
     11 C           6.2619    0.2500    0.0000 C.2     1  UNL1       -0.0741
     12 C           5.3958   -1.2500    0.0000 C.2     1  UNL1       -0.0447
     13 C           3.0000    0.7500    0.0000 C.2     1  UNL1        0.3356
     14 C           6.2619   -1.7500    0.0000 C.3     1  UNL1       -0.0260
     15 C           7.1279   -1.2500    0.0000 C.3     1  UNL1       -0.0308
     16 C           7.1279   -0.2500    0.0000 C.2     1  UNL1       -0.0846
     17 C           3.2729    2.5053    0.0000 C.2     1  UNL1       -0.0882
     18 C           4.5298   -1.7500    0.0000 C.3     1  UNL1        0.0654
     19 C           4.8053   -0.2801    0.0000 C.3     1  UNL1       -0.0437
     20 H           4.4399    2.0952    0.0000 H       1  UNL1        0.0416
     21 H           4.4399   -0.5952    0.0000 H       1  UNL1        0.0786
     22 H           5.9328    2.0600    0.0000 H       1  UNL1        0.0604
     23 H           6.8725    1.1423    0.0000 H       1  UNL1        0.0335
     24 H           6.4739    1.8326    0.0000 H       1  UNL1        0.0335
     25 H           6.0064   -0.3577    0.0000 H       1  UNL1        0.0609
     26 H           5.8633   -2.2250    0.0000 H       1  UNL1        0.0314
     27 H           6.6604   -2.2250    0.0000 H       1  UNL1        0.0314
     28 H           7.3400   -1.8326    0.0000 H       1  UNL1        0.0310
     29 H           7.7385   -1.1423    0.0000 H       1  UNL1        0.0310
     30 H           7.6648    0.0600    0.0000 H       1  UNL1        0.0572
     31 H           5.9328    3.0600    0.0000 H       1  UNL1        0.2098
     32 H           3.6870    2.9667    0.0000 H       1  UNL1        0.0540
     33 H           2.6663    2.6331    0.0000 H       1  UNL1        0.0540
     34 H           4.3178   -1.1674    0.0000 H       1  UNL1        0.0604
     35 H           3.9192   -1.8577    0.0000 H       1  UNL1        0.0604
     36 H           4.5933    0.3025    0.0000 H       1  UNL1        0.0274
     37 H           4.2227   -0.4921    0.0000 H       1  UNL1        0.0274
     38 H           5.0174   -0.8627    0.0000 H       1  UNL1        0.0274
     39 H           3.9929   -3.0600    0.0000 H       1  UNL1        0.2098
@<TRIPOS>BOND
     1     1     6    1
     2     1    13    1
     3     7     2    1
     4     2    31    1
     5     3    13    2
     6     4    18    1
     7     4    39    1
     8     5     6    1
     9     5     7    1
    10     5     9    1
    11     5    20    1
    12     6    10    1
    13     6    21    1
    14     7     8    1
    15     7    22    1
    16     8    11    1
    17     8    23    1
    18     8    24    1
    19     9    13    1
    20     9    17    2
    21    10    12    2
    22    10    25    1
    23    11    16    2
    24    11    19    1
    25    12    14    1
    26    12    18    1
    27    14    15    1
    28    14    26    1
    29    14    27    1
    30    15    16    1
    31    15    28    1
    32    15    29    1
    33    16    30    1
    34    17    32    1
    35    17    33    1
    36    18    34    1
    37    18    35    1
    38    19    36    1
    39    19    37    1
    40    19    38    1
