@<TRIPOS>MOLECULE
IMPHY007323
 94 97 0 0 0
SMALL
GASTEIGER

@<TRIPOS>ATOM
      1 O           6.0010   -2.0000    0.0000 O.3     1  UNL1       -0.3484
      2 O           7.7331    2.0000    0.0000 O.3     1  UNL1       -0.3484
      3 O           4.2690   -2.0000    0.0000 O.3     1  UNL1       -0.3405
      4 O           9.4651    2.0000    0.0000 O.3     1  UNL1       -0.3405
      5 O           6.0010   -4.0000    0.0000 O.3     1  UNL1       -0.3841
      6 O           7.7331    4.0000    0.0000 O.3     1  UNL1       -0.3841
      7 O           4.2690   -5.0000    0.0000 O.3     1  UNL1       -0.3864
      8 O           9.4651    5.0000    0.0000 O.3     1  UNL1       -0.3864
      9 O           2.5369   -4.0000    0.0000 O.3     1  UNL1       -0.3865
     10 O          11.1972    4.0000    0.0000 O.3     1  UNL1       -0.3865
     11 O           2.5369   -1.0000    0.0000 O.3     1  UNL1       -0.3924
     12 O          12.0632    2.5000    0.0000 O.3     1  UNL1       -0.3924
     13 O          11.1972   -1.0000    0.0000 O.3     1  UNL1       -0.4915
     14 O           4.2690    4.0000    0.0000 O.3     1  UNL1       -0.4915
     15 O          11.1972    1.0000    0.0000 O.3     1  UNL1       -0.5033
     16 O           6.0010    5.0000    0.0000 O.3     1  UNL1       -0.5033
     17 C           6.8671   -0.5000    0.0000 C.3     1  UNL1       -0.0083
     18 C           6.8671    0.5000    0.0000 C.3     1  UNL1       -0.0083
     19 C           6.0010   -1.0000    0.0000 C.3     1  UNL1        0.0542
     20 C           7.7331    1.0000    0.0000 C.3     1  UNL1        0.0542
     21 C           7.7331   -1.0000    0.0000 C.3     1  UNL1       -0.0223
     22 C           6.0010    1.0000    0.0000 C.3     1  UNL1       -0.0223
     23 C           5.1350   -2.5000    0.0000 C.3     1  UNL1        0.1879
     24 C           8.5991    2.5000    0.0000 C.3     1  UNL1        0.1879
     25 C           5.1350   -3.5000    0.0000 C.3     1  UNL1        0.1341
     26 C           8.5991    3.5000    0.0000 C.3     1  UNL1        0.1341
     27 C           4.2690   -4.0000    0.0000 C.3     1  UNL1        0.1141
     28 C           9.4651    4.0000    0.0000 C.3     1  UNL1        0.1141
     29 C           3.4030   -3.5000    0.0000 C.3     1  UNL1        0.1119
     30 C          10.3312    3.5000    0.0000 C.3     1  UNL1        0.1119
     31 C           3.4030   -2.5000    0.0000 C.3     1  UNL1        0.1130
     32 C          10.3312    2.5000    0.0000 C.3     1  UNL1        0.1130
     33 C           8.5991   -0.5000    0.0000 C.ar    1  UNL1       -0.0433
     34 C           6.0010    2.0000    0.0000 C.ar    1  UNL1       -0.0433
     35 C           2.5369   -2.0000    0.0000 C.3     1  UNL1        0.0730
     36 C          11.1972    2.0000    0.0000 C.3     1  UNL1        0.0730
     37 C           9.4651   -1.0000    0.0000 C.ar    1  UNL1       -0.0131
     38 C           5.1350    2.5000    0.0000 C.ar    1  UNL1       -0.0131
     39 C           8.5991    0.5000    0.0000 C.ar    1  UNL1       -0.0549
     40 C           6.8671    2.5000    0.0000 C.ar    1  UNL1       -0.0549
     41 C          10.3312   -0.5000    0.0000 C.ar    1  UNL1        0.1615
     42 C           5.1350    3.5000    0.0000 C.ar    1  UNL1        0.1615
     43 C           9.4651    1.0000    0.0000 C.ar    1  UNL1       -0.0163
     44 C           6.8671    3.5000    0.0000 C.ar    1  UNL1       -0.0163
     45 C          10.3312    0.5000    0.0000 C.ar    1  UNL1        0.1585
     46 C           6.0010    4.0000    0.0000 C.ar    1  UNL1        0.1585
     47 C          11.1972   -2.0000    0.0000 C.3     1  UNL1        0.0790
     48 C           4.2690    5.0000    0.0000 C.3     1  UNL1        0.0790
     49 H           6.8671   -1.1200    0.0000 H       1  UNL1        0.0330
     50 H           7.4040    0.1900    0.0000 H       1  UNL1        0.0330
     51 H           5.7890   -0.4174    0.0000 H       1  UNL1        0.0564
     52 H           5.3905   -1.1077    0.0000 H       1  UNL1        0.0564
     53 H           7.9451    0.4174    0.0000 H       1  UNL1        0.0564
     54 H           8.3437    1.1077    0.0000 H       1  UNL1        0.0564
     55 H           7.3346   -1.4750    0.0000 H       1  UNL1        0.0317
     56 H           8.1316   -1.4750    0.0000 H       1  UNL1        0.0317
     57 H           5.3905    1.1077    0.0000 H       1  UNL1        0.0317
     58 H           5.7890    0.4174    0.0000 H       1  UNL1        0.0317
     59 H           5.1350   -1.8800    0.0000 H       1  UNL1        0.0937
     60 H           8.5991    1.8800    0.0000 H       1  UNL1        0.0937
     61 H           5.1350   -4.1200    0.0000 H       1  UNL1        0.0671
     62 H           8.5991    4.1200    0.0000 H       1  UNL1        0.0671
     63 H           3.7320   -4.3100    0.0000 H       1  UNL1        0.0648
     64 H          10.0021    4.3100    0.0000 H       1  UNL1        0.0648
     65 H           2.8660   -3.1900    0.0000 H       1  UNL1        0.0647
     66 H          10.8681    3.1900    0.0000 H       1  UNL1        0.0647
     67 H           3.4030   -1.8800    0.0000 H       1  UNL1        0.0647
     68 H          10.3312    1.8800    0.0000 H       1  UNL1        0.0647
     69 H           1.9264   -1.8923    0.0000 H       1  UNL1        0.0584
     70 H           2.3249   -2.5826    0.0000 H       1  UNL1        0.0584
     71 H          10.7987    1.5250    0.0000 H       1  UNL1        0.0584
     72 H          11.5957    1.5250    0.0000 H       1  UNL1        0.0584
     73 H           6.5380   -3.6900    0.0000 H       1  UNL1        0.2101
     74 H           7.7331    4.6200    0.0000 H       1  UNL1        0.2101
     75 H           3.7320   -5.3100    0.0000 H       1  UNL1        0.2100
     76 H          10.0021    5.3100    0.0000 H       1  UNL1        0.2100
     77 H           2.0000   -3.6900    0.0000 H       1  UNL1        0.2100
     78 H          11.1972    4.6200    0.0000 H       1  UNL1        0.2100
     79 H           9.4651   -1.6200    0.0000 H       1  UNL1        0.0658
     80 H           4.5981    2.1900    0.0000 H       1  UNL1        0.0658
     81 H           8.0622    0.8100    0.0000 H       1  UNL1        0.0621
     82 H           7.4040    2.1900    0.0000 H       1  UNL1        0.0621
     83 H           9.4651    1.6200    0.0000 H       1  UNL1        0.0655
     84 H           7.4040    3.8100    0.0000 H       1  UNL1        0.0655
     85 H           2.0000   -0.6900    0.0000 H       1  UNL1        0.2095
     86 H          12.6002    2.1900    0.0000 H       1  UNL1        0.2095
     87 H          11.7341    0.6900    0.0000 H       1  UNL1        0.2923
     88 H           6.5380    5.3100    0.0000 H       1  UNL1        0.2923
     89 H          10.5772   -2.0000    0.0000 H       1  UNL1        0.0660
     90 H          11.1972   -2.6200    0.0000 H       1  UNL1        0.0660
     91 H          11.8172   -2.0000    0.0000 H       1  UNL1        0.0660
     92 H           4.8890    5.0000    0.0000 H       1  UNL1        0.0660
     93 H           4.2690    5.6200    0.0000 H       1  UNL1        0.0660
     94 H           3.6490    5.0000    0.0000 H       1  UNL1        0.0660
@<TRIPOS>BOND
     1     1    19    1
     2    23     1    1
     3     2    20    1
     4    24     2    1
     5     3    23    1
     6     3    31    1
     7     4    24    1
     8     4    32    1
     9    25     5    1
    10     5    73    1
    11    26     6    1
    12     6    74    1
    13    27     7    1
    14     7    75    1
    15    28     8    1
    16     8    76    1
    17    29     9    1
    18     9    77    1
    19    30    10    1
    20    10    78    1
    21    11    35    1
    22    11    85    1
    23    12    36    1
    24    12    86    1
    25    13    41    1
    26    13    47    1
    27    14    42    1
    28    14    48    1
    29    15    45    1
    30    15    87    1
    31    16    46    1
    32    16    88    1
    33    17    18    1
    34    17    19    1
    35    17    21    1
    36    17    49    1
    37    18    20    1
    38    18    22    1
    39    18    50    1
    40    19    51    1
    41    19    52    1
    42    20    53    1
    43    20    54    1
    44    21    33    1
    45    21    55    1
    46    21    56    1
    47    22    34    1
    48    22    57    1
    49    22    58    1
    50    23    25    1
    51    23    59    1
    52    24    26    1
    53    24    60    1
    54    25    27    1
    55    25    61    1
    56    26    28    1
    57    26    62    1
    58    27    29    1
    59    27    63    1
    60    28    30    1
    61    28    64    1
    62    29    31    1
    63    29    65    1
    64    30    32    1
    65    30    66    1
    66    31    35    1
    67    31    67    1
    68    32    36    1
    69    32    68    1
    70    33    37   ar
    71    33    39   ar
    72    34    38   ar
    73    34    40   ar
    74    35    69    1
    75    35    70    1
    76    36    71    1
    77    36    72    1
    78    37    41   ar
    79    37    79    1
    80    38    42   ar
    81    38    80    1
    82    39    43   ar
    83    39    81    1
    84    40    44   ar
    85    40    82    1
    86    41    45   ar
    87    42    46   ar
    88    43    45   ar
    89    43    83    1
    90    44    46   ar
    91    44    84    1
    92    47    89    1
    93    47    90    1
    94    47    91    1
    95    48    92    1
    96    48    93    1
    97    48    94    1
