@<TRIPOS>MOLECULE
IMPHY014380
 85 88 0 0 0
SMALL
GASTEIGER

@<TRIPOS>ATOM
      1 O           3.7320   -3.6598    0.0000 O.3     1  UNL1       -0.4615
      2 O           2.8718   -2.1564    0.0000 O.2     1  UNL1       -0.2512
      3 C           9.1251   -0.6074    0.0000 C.3     1  UNL1       -0.0225
      4 C           9.1251   -1.6074    0.0000 C.3     1  UNL1       -0.0140
      5 C           7.3931   -1.6074    0.0000 C.3     1  UNL1       -0.0139
      6 C           6.4831   -2.1143    0.0000 C.3     1  UNL1       -0.0222
      7 C          10.0713   -0.3027    0.0000 C.3     1  UNL1       -0.0325
      8 C           8.2591   -2.1074    0.0000 C.2     1  UNL1       -0.0662
      9 C           8.2591   -0.1074    0.0000 C.3     1  UNL1       -0.0463
     10 C           7.3931   -0.6074    0.0000 C.3     1  UNL1       -0.0455
     11 C          10.0713   -1.9122    0.0000 C.3     1  UNL1       -0.0457
     12 C           6.4750   -3.1559    0.0000 C.3     1  UNL1       -0.0283
     13 C          10.6550   -1.1074    0.0000 C.3     1  UNL1       -0.0489
     14 C          10.3820    0.6478    0.0000 C.3     1  UNL1       -0.0405
     15 C           5.5562   -1.5502    0.0000 C.3     1  UNL1       -0.0435
     16 C           9.1251    0.3926    0.0000 C.3     1  UNL1       -0.0588
     17 C           7.3771   -3.6767    0.0000 C.3     1  UNL1       -0.0310
     18 C           8.2752   -3.1489    0.0000 C.2     1  UNL1       -0.0839
     19 C           5.5396   -3.7056    0.0000 C.3     1  UNL1       -0.0120
     20 C           6.4908   -1.1143    0.0000 C.3     1  UNL1       -0.0588
     21 C           4.6084   -2.0781    0.0000 C.3     1  UNL1       -0.0151
     22 C           4.6000   -3.1631    0.0000 C.3     1  UNL1        0.1034
     23 C          11.3605    0.8540    0.0000 C.3     1  UNL1       -0.0499
     24 C           9.7142    1.3921    0.0000 C.3     1  UNL1       -0.0621
     25 C          11.6712    1.8046    0.0000 C.3     1  UNL1       -0.0497
     26 C          12.6497    2.0108    0.0000 C.3     1  UNL1       -0.0389
     27 C          12.9603    2.9613    0.0000 C.3     1  UNL1       -0.0439
     28 C          13.3175    1.2665    0.0000 C.3     1  UNL1       -0.0528
     29 C           2.8680   -3.1564    0.0000 C.2     1  UNL1        0.3042
     30 C          13.9388    3.1675    0.0000 C.3     1  UNL1       -0.0624
     31 C          12.2925    3.7056    0.0000 C.3     1  UNL1       -0.0624
     32 C          14.2960    1.4727    0.0000 C.3     1  UNL1       -0.0650
     33 C           2.0000   -3.6531    0.0000 C.3     1  UNL1        0.0332
     34 H           9.2151   -2.4527    0.0000 H       1  UNL1        0.0351
     35 H           8.1292   -1.1824    0.0000 H       1  UNL1        0.0351
     36 H          10.9110   -0.1708    0.0000 H       1  UNL1        0.0309
     37 H           8.6576    0.3675    0.0000 H       1  UNL1        0.0271
     38 H           7.8606    0.3675    0.0000 H       1  UNL1        0.0271
     39 H           7.1810   -0.0248    0.0000 H       1  UNL1        0.0271
     40 H           6.7825   -0.7151    0.0000 H       1  UNL1        0.0271
     41 H           9.8203   -2.4791    0.0000 H       1  UNL1        0.0271
     42 H          10.6087   -2.2214    0.0000 H       1  UNL1        0.0271
     43 H           6.4783   -4.0059    0.0000 H       1  UNL1        0.0310
     44 H          11.1158   -1.5222    0.0000 H       1  UNL1        0.0268
     45 H          11.1158   -0.6927    0.0000 H       1  UNL1        0.0268
     46 H          10.5746    1.2371    0.0000 H       1  UNL1        0.0301
     47 H           5.9644   -1.0835    0.0000 H       1  UNL1        0.0272
     48 H           5.1663   -1.0682    0.0000 H       1  UNL1        0.0272
     49 H           9.7451    0.3926    0.0000 H       1  UNL1        0.0235
     50 H           9.1251    1.0126    0.0000 H       1  UNL1        0.0235
     51 H           8.5051    0.3926    0.0000 H       1  UNL1        0.0235
     52 H           6.9798   -4.1527    0.0000 H       1  UNL1        0.0310
     53 H           7.7781   -4.1496    0.0000 H       1  UNL1        0.0310
     54 H           8.8156   -3.4527    0.0000 H       1  UNL1        0.0572
     55 H           5.1423   -4.1816    0.0000 H       1  UNL1        0.0304
     56 H           5.9406   -4.1785    0.0000 H       1  UNL1        0.0304
     57 H           7.1108   -1.1191    0.0000 H       1  UNL1        0.0235
     58 H           6.4956   -0.4943    0.0000 H       1  UNL1        0.0235
     59 H           5.8708   -1.1095    0.0000 H       1  UNL1        0.0235
     60 H           4.4038   -1.4929    0.0000 H       1  UNL1        0.0301
     61 H           3.9967   -2.1795    0.0000 H       1  UNL1        0.0301
     62 H           4.0648   -2.8500    0.0000 H       1  UNL1        0.0734
     63 H          11.3811    0.2344    0.0000 H       1  UNL1        0.0268
     64 H          11.9743    0.7667    0.0000 H       1  UNL1        0.0268
     65 H          10.1756    1.8062    0.0000 H       1  UNL1        0.0233
     66 H           9.3001    1.8536    0.0000 H       1  UNL1        0.0233
     67 H           9.2527    0.9781    0.0000 H       1  UNL1        0.0233
     68 H          11.6506    2.4242    0.0000 H       1  UNL1        0.0268
     69 H          11.0574    1.8919    0.0000 H       1  UNL1        0.0268
     70 H          12.4571    1.4215    0.0000 H       1  UNL1        0.0303
     71 H          13.1530    3.5506    0.0000 H       1  UNL1        0.0298
     72 H          12.7912    0.9388    0.0000 H       1  UNL1        0.0265
     73 H          13.5488    0.6912    0.0000 H       1  UNL1        0.0265
     74 H          14.0667    2.5608    0.0000 H       1  UNL1        0.0232
     75 H          14.5455    3.2954    0.0000 H       1  UNL1        0.0232
     76 H          13.8110    3.7742    0.0000 H       1  UNL1        0.0232
     77 H          12.7540    4.1197    0.0000 H       1  UNL1        0.0232
     78 H          11.8784    4.1671    0.0000 H       1  UNL1        0.0232
     79 H          11.8310    3.2915    0.0000 H       1  UNL1        0.0232
     80 H          14.4239    0.8660    0.0000 H       1  UNL1        0.0230
     81 H          14.9027    1.6006    0.0000 H       1  UNL1        0.0230
     82 H          14.1682    2.0794    0.0000 H       1  UNL1        0.0230
     83 H           1.6921   -3.1150    0.0000 H       1  UNL1        0.0342
     84 H           1.4619   -3.9610    0.0000 H       1  UNL1        0.0342
     85 H           2.3079   -4.1912    0.0000 H       1  UNL1        0.0342
@<TRIPOS>BOND
     1    22     1    1
     2     1    29    1
     3     2    29    2
     4     3     4    1
     5     3     7    1
     6     3     9    1
     7     3    16    1
     8     4     8    1
     9     4    11    1
    10     4    34    1
    11     5     6    1
    12     5     8    1
    13     5    10    1
    14     5    35    1
    15     6    12    1
    16     6    15    1
    17     6    20    1
    18     7    13    1
    19     7    14    1
    20     7    36    1
    21     8    18    2
    22     9    10    1
    23     9    37    1
    24     9    38    1
    25    10    39    1
    26    10    40    1
    27    11    13    1
    28    11    41    1
    29    11    42    1
    30    12    17    1
    31    12    19    1
    32    12    43    1
    33    13    44    1
    34    13    45    1
    35    14    23    1
    36    14    24    1
    37    14    46    1
    38    15    21    1
    39    15    47    1
    40    15    48    1
    41    16    49    1
    42    16    50    1
    43    16    51    1
    44    17    18    1
    45    17    52    1
    46    17    53    1
    47    18    54    1
    48    19    22    1
    49    19    55    1
    50    19    56    1
    51    20    57    1
    52    20    58    1
    53    20    59    1
    54    21    22    1
    55    21    60    1
    56    21    61    1
    57    22    62    1
    58    23    25    1
    59    23    63    1
    60    23    64    1
    61    24    65    1
    62    24    66    1
    63    24    67    1
    64    26    25    1
    65    25    68    1
    66    25    69    1
    67    26    27    1
    68    26    28    1
    69    26    70    1
    70    27    30    1
    71    27    31    1
    72    27    71    1
    73    28    32    1
    74    28    72    1
    75    28    73    1
    76    29    33    1
    77    30    74    1
    78    30    75    1
    79    30    76    1
    80    31    77    1
    81    31    78    1
    82    31    79    1
    83    32    80    1
    84    32    81    1
    85    32    82    1
    86    33    83    1
    87    33    84    1
    88    33    85    1
