@<TRIPOS>MOLECULE
IMPHY016276
 35 34 0 0 0
SMALL
GASTEIGER

@<TRIPOS>ATOM
      1 O           8.9282   -0.2500    0.0000 O.3     1  UNL1       -0.4646
      2 O           9.7942    1.2500    0.0000 O.2     1  UNL1       -0.2512
      3 C           6.3301    0.2500    0.0000 C.3     1  UNL1       -0.0474
      4 C           7.1962   -0.2500    0.0000 C.3     1  UNL1       -0.0095
      5 C           5.4641   -0.2500    0.0000 C.3     1  UNL1       -0.0527
      6 C           4.5981    0.2500    0.0000 C.3     1  UNL1       -0.0531
      7 C           3.7320   -0.2500    0.0000 C.3     1  UNL1       -0.0533
      8 C           8.0622    0.2500    0.0000 C.3     1  UNL1        0.0950
      9 C           7.1962   -1.2500    0.0000 C.3     1  UNL1       -0.0593
     10 C           2.8660    0.2500    0.0000 C.3     1  UNL1       -0.0559
     11 C           2.0000   -0.2500    0.0000 C.3     1  UNL1       -0.0653
     12 C           9.7942    0.2500    0.0000 C.2     1  UNL1        0.3040
     13 C          10.6603   -0.2500    0.0000 C.3     1  UNL1        0.0332
     14 H           6.7287    0.7249    0.0000 H       1  UNL1        0.0269
     15 H           5.9316    0.7249    0.0000 H       1  UNL1        0.0269
     16 H           6.6592   -0.5600    0.0000 H       1  UNL1        0.0331
     17 H           5.0656   -0.7249    0.0000 H       1  UNL1        0.0265
     18 H           5.8626   -0.7249    0.0000 H       1  UNL1        0.0265
     19 H           4.9966    0.7249    0.0000 H       1  UNL1        0.0265
     20 H           4.1996    0.7249    0.0000 H       1  UNL1        0.0265
     21 H           3.3335   -0.7249    0.0000 H       1  UNL1        0.0265
     22 H           4.1306   -0.7249    0.0000 H       1  UNL1        0.0265
     23 H           8.4607    0.7249    0.0000 H       1  UNL1        0.0700
     24 H           7.6636    0.7249    0.0000 H       1  UNL1        0.0700
     25 H           6.5762   -1.2500    0.0000 H       1  UNL1        0.0233
     26 H           7.1962   -1.8700    0.0000 H       1  UNL1        0.0233
     27 H           7.8162   -1.2500    0.0000 H       1  UNL1        0.0233
     28 H           3.2646    0.7249    0.0000 H       1  UNL1        0.0263
     29 H           2.4675    0.7249    0.0000 H       1  UNL1        0.0263
     30 H           1.6900    0.2869    0.0000 H       1  UNL1        0.0230
     31 H           1.4631   -0.5600    0.0000 H       1  UNL1        0.0230
     32 H           2.3100   -0.7869    0.0000 H       1  UNL1        0.0230
     33 H          10.3503   -0.7869    0.0000 H       1  UNL1        0.0342
     34 H          11.1972   -0.5600    0.0000 H       1  UNL1        0.0342
     35 H          10.9703    0.2869    0.0000 H       1  UNL1        0.0342
@<TRIPOS>BOND
     1     1     8    1
     2     1    12    1
     3     2    12    2
     4     3     4    1
     5     3     5    1
     6     3    14    1
     7     3    15    1
     8     4     8    1
     9     4     9    1
    10     4    16    1
    11     5     6    1
    12     5    17    1
    13     5    18    1
    14     6     7    1
    15     6    19    1
    16     6    20    1
    17     7    10    1
    18     7    21    1
    19     7    22    1
    20     8    23    1
    21     8    24    1
    22     9    25    1
    23     9    26    1
    24     9    27    1
    25    10    11    1
    26    10    28    1
    27    10    29    1
    28    11    30    1
    29    11    31    1
    30    11    32    1
    31    12    13    1
    32    13    33    1
    33    13    34    1
    34    13    35    1
