@<TRIPOS>MOLECULE
IMPHY000086
 33 37 0 0 0
SMALL
GASTEIGER

@<TRIPOS>ATOM
      1 O           4.3798   -0.7829    0.0000 O.2     1  UNL1       -0.4539
      2 O           2.5836   -3.6291    0.0000 O.2     1  UNL1       -0.4628
      3 O           6.8686    2.9181    0.0000 O.3     1  UNL1       -0.4526
      4 O           5.4717    3.7175    0.0000 O.3     1  UNL1       -0.4526
      5 O           7.0321   -2.3275    0.0000 O.2     1  UNL1       -0.2870
      6 C           4.3958   -1.8244    0.0000 C.ar    1  UNL1        0.1500
      7 C           5.2619   -2.3244    0.0000 C.ar    1  UNL1        0.0648
      8 C           3.5298   -2.3244    0.0000 C.ar    1  UNL1        0.0630
      9 C           5.2778   -0.2551    0.0000 C.ar    1  UNL1        0.1394
     10 C           5.2740    0.7449    0.0000 C.ar    1  UNL1        0.0211
     11 C           3.5298   -3.3244    0.0000 C.ar    1  UNL1        0.1383
     12 C           6.1719   -1.8175    0.0000 C.ar    1  UNL1        0.1931
     13 C           6.1799   -0.7759    0.0000 C.ar    1  UNL1        0.0287
     14 C           5.2619   -3.3244    0.0000 C.ar    1  UNL1       -0.0439
     15 C           6.1342    2.2482    0.0000 C.ar    1  UNL1        0.1669
     16 C           6.1381    1.2482    0.0000 C.ar    1  UNL1       -0.0055
     17 C           5.2663    2.7449    0.0000 C.ar    1  UNL1        0.1663
     18 C           4.3958   -3.8244    0.0000 C.ar    1  UNL1       -0.0179
     19 C           4.4060    1.2416    0.0000 C.ar    1  UNL1       -0.0474
     20 C           2.5836   -2.0196    0.0000 C.ar    1  UNL1       -0.0126
     21 C           4.4022    2.2415    0.0000 C.ar    1  UNL1       -0.0155
     22 C           2.0000   -2.8244    0.0000 C.ar    1  UNL1        0.0932
     23 C           6.4600    3.8244    0.0000 C.3     1  UNL1        0.2332
     24 H           6.7180   -0.4680    0.0000 H       1  UNL1        0.0693
     25 H           5.7988   -3.6344    0.0000 H       1  UNL1        0.0627
     26 H           6.6762    0.9403    0.0000 H       1  UNL1        0.0662
     27 H           4.3958   -4.4444    0.0000 H       1  UNL1        0.0655
     28 H           3.8703    0.9295    0.0000 H       1  UNL1        0.0626
     29 H           2.3910   -1.4303    0.0000 H       1  UNL1        0.0656
     30 H           3.8640    2.5495    0.0000 H       1  UNL1        0.0655
     31 H           7.0489    4.0184    0.0000 H       1  UNL1        0.1166
     32 H           6.3290    4.4304    0.0000 H       1  UNL1        0.1166
     33 H           1.3800   -2.8244    0.0000 H       1  UNL1        0.1030
@<TRIPOS>BOND
     1     1     6   ar
     2     1     9   ar
     3     2    11   ar
     4     2    22   ar
     5     3    15    1
     6     3    23    1
     7     4    17    1
     8     4    23    1
     9     5    12    2
    10     6     7   ar
    11     6     8   ar
    12     7    12   ar
    13     7    14   ar
    14     8    11   ar
    15     8    20   ar
    16     9    10    1
    17     9    13   ar
    18    10    16   ar
    19    10    19   ar
    20    11    18   ar
    21    12    13   ar
    22    13    24    1
    23    14    18   ar
    24    14    25    1
    25    15    16   ar
    26    15    17   ar
    27    16    26    1
    28    17    21   ar
    29    18    27    1
    30    19    21   ar
    31    19    28    1
    32    20    22   ar
    33    20    29    1
    34    21    30    1
    35    22    33    1
    36    23    31    1
    37    23    32    1
