@<TRIPOS>MOLECULE
IMPHY004429
 28 28 0 0 0
SMALL
GASTEIGER

@<TRIPOS>ATOM
      1 O           6.3301   -0.2500    0.0000 O.3     1  UNL1       -0.4610
      2 O           8.0622   -0.2500    0.0000 O.2     1  UNL1       -0.2508
      3 C           5.4641    0.2500    0.0000 C.3     1  UNL1        0.1065
      4 C           5.4641    1.2500    0.0000 C.3     1  UNL1       -0.0149
      5 C           6.3301    1.7500    0.0000 C.3     1  UNL1       -0.0396
      6 C           4.5981   -0.2500    0.0000 C.3     1  UNL1        0.0025
      7 C           7.1962    1.2500    0.0000 C.3     1  UNL1        0.0451
      8 C           7.1962    0.2500    0.0000 C.2     1  UNL1        0.3073
      9 C           3.7320    0.2500    0.0000 C.2     1  UNL1       -0.0845
     10 C           2.8660   -0.2500    0.0000 C.2     1  UNL1       -0.0881
     11 C           2.8660   -1.2500    0.0000 C.3     1  UNL1       -0.0376
     12 C           2.0000   -1.7500    0.0000 C.3     1  UNL1       -0.0618
     13 H           5.4641   -0.3700    0.0000 H       1  UNL1        0.0737
     14 H           5.2520    1.8326    0.0000 H       1  UNL1        0.0301
     15 H           4.8535    1.1423    0.0000 H       1  UNL1        0.0301
     16 H           6.7287    2.2250    0.0000 H       1  UNL1        0.0272
     17 H           5.9316    2.2250    0.0000 H       1  UNL1        0.0272
     18 H           4.1996   -0.7249    0.0000 H       1  UNL1        0.0343
     19 H           4.9966   -0.7249    0.0000 H       1  UNL1        0.0343
     20 H           7.8067    1.1423    0.0000 H       1  UNL1        0.0377
     21 H           7.4082    1.8326    0.0000 H       1  UNL1        0.0377
     22 H           3.7320    0.8700    0.0000 H       1  UNL1        0.0570
     23 H           2.3291    0.0600    0.0000 H       1  UNL1        0.0569
     24 H           3.0781   -1.8326    0.0000 H       1  UNL1        0.0305
     25 H           3.4766   -1.1423    0.0000 H       1  UNL1        0.0305
     26 H           1.6900   -1.2131    0.0000 H       1  UNL1        0.0233
     27 H           1.4631   -2.0600    0.0000 H       1  UNL1        0.0233
     28 H           2.3100   -2.2869    0.0000 H       1  UNL1        0.0233
@<TRIPOS>BOND
     1     1     3    1
     2     1     8    1
     3     2     8    2
     4     3     4    1
     5     3     6    1
     6     3    13    1
     7     4     5    1
     8     4    14    1
     9     4    15    1
    10     5     7    1
    11     5    16    1
    12     5    17    1
    13     6     9    1
    14     6    18    1
    15     6    19    1
    16     7     8    1
    17     7    20    1
    18     7    21    1
    19     9    10    2
    20     9    22    1
    21    10    11    1
    22    10    23    1
    23    11    12    1
    24    11    24    1
    25    11    25    1
    26    12    26    1
    27    12    27    1
    28    12    28    1
