@<TRIPOS>MOLECULE
IMPHY001802
 24 24 0 0 0
SMALL
GASTEIGER

@<TRIPOS>ATOM
      1 O           4.7770    0.1681    0.0000 O.3     1  UNL1       -0.4590
      2 O           2.8090    0.8674    0.0000 O.2     1  UNL1       -0.4564
      3 O           5.3122    1.8153    0.0000 O.2     1  UNL1       -0.2415
      4 C           5.9360   -1.1191    0.0000 C.3     1  UNL1       -0.0188
      5 C           6.8870   -1.4281    0.0000 C.3     1  UNL1       -0.0528
      6 C           5.7281   -0.1410    0.0000 C.3     1  UNL1        0.0929
      7 C           7.0949   -2.4063    0.0000 C.3     1  UNL1       -0.0652
      8 C           4.5691    1.1462    0.0000 C.2     1  UNL1        0.3748
      9 C           3.6180    1.4552    0.0000 C.ar    1  UNL1        0.2112
     10 C           3.3090    2.4063    0.0000 C.ar    1  UNL1       -0.0093
     11 C           2.3090    2.4063    0.0000 C.ar    1  UNL1       -0.0231
     12 C           2.0000    1.4552    0.0000 C.ar    1  UNL1        0.0929
     13 H           5.3164   -1.1408    0.0000 H       1  UNL1        0.0298
     14 H           5.8497   -1.7331    0.0000 H       1  UNL1        0.0298
     15 H           7.5066   -1.4065    0.0000 H       1  UNL1        0.0264
     16 H           6.9733   -0.8142    0.0000 H       1  UNL1        0.0264
     17 H           6.3477   -0.1193    0.0000 H       1  UNL1        0.0697
     18 H           5.8144    0.4730    0.0000 H       1  UNL1        0.0697
     19 H           6.4885   -2.5352    0.0000 H       1  UNL1        0.0230
     20 H           7.2238   -3.0127    0.0000 H       1  UNL1        0.0230
     21 H           7.7014   -2.2774    0.0000 H       1  UNL1        0.0230
     22 H           3.6734    2.9079    0.0000 H       1  UNL1        0.0657
     23 H           1.9446    2.9079    0.0000 H       1  UNL1        0.0649
     24 H           1.4103    1.2636    0.0000 H       1  UNL1        0.1029
@<TRIPOS>BOND
     1     1     6    1
     2     1     8    1
     3     2     9   ar
     4     2    12   ar
     5     3     8    2
     6     4     5    1
     7     4     6    1
     8     4    13    1
     9     4    14    1
    10     5     7    1
    11     5    15    1
    12     5    16    1
    13     6    17    1
    14     6    18    1
    15     7    19    1
    16     7    20    1
    17     7    21    1
    18     8     9    1
    19     9    10   ar
    20    10    11   ar
    21    10    22    1
    22    11    12   ar
    23    11    23    1
    24    12    24    1
