@<TRIPOS>MOLECULE
IMPHY012981
 52 57 0 0 0
SMALL
GASTEIGER

@<TRIPOS>ATOM
      1 O           5.5733    2.1494    0.0000 O.2     1  UNL1       -0.4540
      2 O           4.6660   -1.9960    0.0000 O.2     1  UNL1       -0.4540
      3 O           7.5017   -0.1487    0.0000 O.2     1  UNL1       -0.2864
      4 O           4.6660    1.0040    0.0000 O.2     1  UNL1       -0.2864
      5 C           5.8741    0.4437    0.0000 C.ar    1  UNL1        0.0795
      6 C           5.5321   -0.4960    0.0000 C.ar    1  UNL1        0.0795
      7 C           5.2313    1.2097    0.0000 C.ar    1  UNL1        0.1472
      8 C           5.5321   -1.4960    0.0000 C.ar    1  UNL1        0.1472
      9 C           6.8589    0.6173    0.0000 C.ar    1  UNL1        0.2010
     10 C           4.6660    0.0040    0.0000 C.ar    1  UNL1        0.2010
     11 C           7.2009    1.5570    0.0000 C.ar    1  UNL1        0.0646
     12 C           3.8000   -0.4960    0.0000 C.ar    1  UNL1        0.0646
     13 C           6.5581    2.3230    0.0000 C.ar    1  UNL1        0.1393
     14 C           3.8000   -1.4960    0.0000 C.ar    1  UNL1        0.1393
     15 C           4.3653    1.7097    0.0000 C.ar    1  UNL1        0.0180
     16 C           6.3981   -1.9960    0.0000 C.ar    1  UNL1        0.0180
     17 C           8.2294    1.7220    0.0000 C.ar    1  UNL1       -0.0474
     18 C           2.9061    0.0386    0.0000 C.ar    1  UNL1       -0.0474
     19 C           6.8992    3.3072    0.0000 C.ar    1  UNL1       -0.0186
     20 C           2.9061   -2.0307    0.0000 C.ar    1  UNL1       -0.0186
     21 C           4.3653    2.7097    0.0000 C.ar    1  UNL1       -0.0511
     22 C           6.3981   -2.9960    0.0000 C.ar    1  UNL1       -0.0511
     23 C           3.4992    1.2098    0.0000 C.ar    1  UNL1       -0.0511
     24 C           7.2641   -1.4960    0.0000 C.ar    1  UNL1       -0.0511
     25 C           8.5932    2.6981    0.0000 C.ar    1  UNL1       -0.0609
     26 C           2.0000   -0.4752    0.0000 C.ar    1  UNL1       -0.0609
     27 C           7.9236    3.4960    0.0000 C.ar    1  UNL1       -0.0582
     28 C           2.0000   -1.5168    0.0000 C.ar    1  UNL1       -0.0582
     29 C           3.4992    3.2097    0.0000 C.ar    1  UNL1       -0.0611
     30 C           7.2641   -3.4960    0.0000 C.ar    1  UNL1       -0.0611
     31 C           2.6332    1.7097    0.0000 C.ar    1  UNL1       -0.0611
     32 C           8.1301   -1.9960    0.0000 C.ar    1  UNL1       -0.0611
     33 C           2.6332    2.7097    0.0000 C.ar    1  UNL1       -0.0617
     34 C           8.1301   -2.9960    0.0000 C.ar    1  UNL1       -0.0617
     35 H           8.6224    1.2425    0.0000 H       1  UNL1        0.0626
     36 H           2.9132    0.6586    0.0000 H       1  UNL1        0.0626
     37 H           6.4953    3.7776    0.0000 H       1  UNL1        0.0654
     38 H           2.9132   -2.6506    0.0000 H       1  UNL1        0.0654
     39 H           4.9022    3.0197    0.0000 H       1  UNL1        0.0625
     40 H           5.8612   -3.3060    0.0000 H       1  UNL1        0.0625
     41 H           3.4992    0.5898    0.0000 H       1  UNL1        0.0625
     42 H           7.2641   -0.8760    0.0000 H       1  UNL1        0.0625
     43 H           9.2042    2.8034    0.0000 H       1  UNL1        0.0618
     44 H           1.4643   -0.1631    0.0000 H       1  UNL1        0.0618
     45 H           8.1334    4.0794    0.0000 H       1  UNL1        0.0619
     46 H           1.4643   -1.8289    0.0000 H       1  UNL1        0.0619
     47 H           3.4992    3.8297    0.0000 H       1  UNL1        0.0618
     48 H           7.2641   -4.1160    0.0000 H       1  UNL1        0.0618
     49 H           2.0963    1.3997    0.0000 H       1  UNL1        0.0618
     50 H           8.6671   -1.6860    0.0000 H       1  UNL1        0.0618
     51 H           2.0963    3.0197    0.0000 H       1  UNL1        0.0618
     52 H           8.6671   -3.3060    0.0000 H       1  UNL1        0.0618
@<TRIPOS>BOND
     1     1     7   ar
     2     1    13   ar
     3     2     8   ar
     4     2    14   ar
     5     3     9    2
     6     4    10    2
     7     5     6    1
     8     5     7   ar
     9     5     9   ar
    10     6     8   ar
    11     6    10   ar
    12     7    15    1
    13     8    16    1
    14     9    11   ar
    15    10    12   ar
    16    11    13   ar
    17    11    17   ar
    18    12    14   ar
    19    12    18   ar
    20    13    19   ar
    21    14    20   ar
    22    15    21   ar
    23    15    23   ar
    24    16    22   ar
    25    16    24   ar
    26    17    25   ar
    27    17    35    1
    28    18    26   ar
    29    18    36    1
    30    19    27   ar
    31    19    37    1
    32    20    28   ar
    33    20    38    1
    34    21    29   ar
    35    21    39    1
    36    22    30   ar
    37    22    40    1
    38    23    31   ar
    39    23    41    1
    40    24    32   ar
    41    24    42    1
    42    25    27   ar
    43    25    43    1
    44    26    28   ar
    45    26    44    1
    46    27    45    1
    47    28    46    1
    48    29    33   ar
    49    29    47    1
    50    30    34   ar
    51    30    48    1
    52    31    33   ar
    53    31    49    1
    54    32    34   ar
    55    32    50    1
    56    33    51    1
    57    34    52    1
