@<TRIPOS>MOLECULE
IMPHY002001
 78 82 0 0 0
SMALL
GASTEIGER

@<TRIPOS>ATOM
      1 O           8.2619   -2.3230    0.0000 O.3     1  UNL1       -0.3698
      2 O           6.6098    2.6146    0.0000 O.2     1  UNL1       -0.2968
      3 O          10.8248   -0.4455    0.0000 O.2     1  UNL1       -0.2970
      4 O           9.7258   -4.4432    0.0000 O.3     1  UNL1       -0.3865
      5 O           3.9553    4.2908    0.0000 O.2     1  UNL1       -0.5036
      6 O           2.1359    3.2590    0.0000 O.2     1  UNL1       -0.2879
      7 C           6.6098   -0.3854    0.0000 C.3     1  UNL1       -0.0196
      8 C           7.4758    0.1146    0.0000 C.3     1  UNL1       -0.0138
      9 C           5.7438    0.1146    0.0000 C.3     1  UNL1       -0.0187
     10 C           8.2129   -0.5525    0.0000 C.3     1  UNL1        0.0008
     11 C           5.7438    1.1146    0.0000 C.3     1  UNL1        0.0398
     12 C           6.8190   -1.3572    0.0000 C.3     1  UNL1       -0.0201
     13 C           7.8077   -1.4603    0.0000 C.3     1  UNL1        0.0637
     14 C           7.4758    1.1146    0.0000 C.3     1  UNL1        0.0127
     15 C           6.6098    1.6146    0.0000 C.2     1  UNL1        0.1409
     16 C           5.7438   -0.8854    0.0000 C.3     1  UNL1       -0.0587
     17 C           9.1583   -0.3144    0.0000 C.3     1  UNL1        0.0205
     18 C           4.8498    1.6492    0.0000 C.3     1  UNL1        0.0152
     19 C           4.8498   -0.4201    0.0000 C.3     1  UNL1       -0.0302
     20 C           8.3419    0.6146    0.0000 C.3     1  UNL1       -0.0583
     21 C           5.7438    2.1146    0.0000 C.3     1  UNL1       -0.0517
     22 C           3.9438    1.1354    0.0000 C.2     1  UNL1       -0.0524
     23 C           3.9438    0.0938    0.0000 C.2     1  UNL1       -0.0829
     24 C           9.9356   -0.9030    0.0000 C.2     1  UNL1        0.1391
     25 C           9.2191   -2.5084    0.0000 C.3     1  UNL1        0.0938
     26 C           3.0000    1.6706    0.0000 C.3     1  UNL1        0.0525
     27 C           9.3577    0.6656    0.0000 C.3     1  UNL1       -0.0553
     28 C           4.8749    2.7340    0.0000 C.2     1  UNL1       -0.0309
     29 C           9.9626   -1.8776    0.0000 C.3     1  UNL1        0.0351
     30 C           9.4725   -3.4758    0.0000 C.3     1  UNL1        0.0869
     31 C           3.0000    2.7556    0.0000 C.2     1  UNL1        0.2063
     32 C           3.9438    3.2909    0.0000 C.2     1  UNL1        0.1567
     33 C           2.0000    1.6668    0.0000 C.3     1  UNL1       -0.0489
     34 C           2.5033    0.8027    0.0000 C.3     1  UNL1       -0.0489
     35 C          10.4399   -3.2224    0.0000 C.3     1  UNL1       -0.0339
     36 C           8.5051   -3.7291    0.0000 C.3     1  UNL1       -0.0339
     37 H           6.4799    0.5396    0.0000 H       1  UNL1        0.0319
     38 H           8.7597   -1.2032    0.0000 H       1  UNL1        0.0338
     39 H           6.2025   -1.4233    0.0000 H       1  UNL1        0.0296
     40 H           6.8199   -1.9772    0.0000 H       1  UNL1        0.0296
     41 H           7.3313   -2.1642    0.0000 H       1  UNL1        0.0599
     42 H           8.0864    1.0069    0.0000 H       1  UNL1        0.0347
     43 H           7.6879    1.6972    0.0000 H       1  UNL1        0.0347
     44 H           5.4338   -0.3485    0.0000 H       1  UNL1        0.0235
     45 H           5.2068   -1.1954    0.0000 H       1  UNL1        0.0235
     46 H           6.0538   -1.4223    0.0000 H       1  UNL1        0.0235
     47 H           9.7384   -0.0954    0.0000 H       1  UNL1        0.0378
     48 H           5.5940    2.0600    0.0000 H       1  UNL1        0.0399
     49 H           4.4562   -0.8991    0.0000 H       1  UNL1        0.0311
     50 H           5.2544   -0.8899    0.0000 H       1  UNL1        0.0311
     51 H           8.6519    0.0777    0.0000 H       1  UNL1        0.0235
     52 H           8.8788    0.9246    0.0000 H       1  UNL1        0.0235
     53 H           8.0319    1.1515    0.0000 H       1  UNL1        0.0235
     54 H           6.3638    2.1146    0.0000 H       1  UNL1        0.0239
     55 H           5.7438    2.7346    0.0000 H       1  UNL1        0.0239
     56 H           5.1238    2.1146    0.0000 H       1  UNL1        0.0239
     57 H           3.4080   -0.2183    0.0000 H       1  UNL1        0.0572
     58 H           8.6379   -3.1286    0.0000 H       1  UNL1        0.0629
     59 H           9.9652    0.5419    0.0000 H       1  UNL1        0.0237
     60 H           9.4813    1.2731    0.0000 H       1  UNL1        0.0237
     61 H           8.7502    0.7892    0.0000 H       1  UNL1        0.0237
     62 H           5.4178    3.0336    0.0000 H       1  UNL1        0.0616
     63 H          10.2479   -2.4280    0.0000 H       1  UNL1        0.0368
     64 H          10.5628   -1.7224    0.0000 H       1  UNL1        0.0368
     65 H           1.9976    2.2868    0.0000 H       1  UNL1        0.0242
     66 H           1.3800    1.6644    0.0000 H       1  UNL1        0.0242
     67 H           2.0024    1.0468    0.0000 H       1  UNL1        0.0242
     68 H           1.9652    1.1106    0.0000 H       1  UNL1        0.0242
     69 H           2.1954    0.2646    0.0000 H       1  UNL1        0.0242
     70 H           3.0415    0.4948    0.0000 H       1  UNL1        0.0242
     71 H          10.5969   -3.8222    0.0000 H       1  UNL1        0.0258
     72 H          11.0396   -3.0653    0.0000 H       1  UNL1        0.0258
     73 H          10.2828   -2.6226    0.0000 H       1  UNL1        0.0258
     74 H           8.3480   -3.1294    0.0000 H       1  UNL1        0.0258
     75 H           7.9053   -3.8862    0.0000 H       1  UNL1        0.0258
     76 H           8.6622   -4.3289    0.0000 H       1  UNL1        0.0258
     77 H          10.3238   -4.6070    0.0000 H       1  UNL1        0.2102
     78 H           3.4220    4.6070    0.0000 H       1  UNL1        0.2923
@<TRIPOS>BOND
     1     1    13    1
     2     1    25    1
     3     2    15    2
     4     3    24    2
     5     4    30    1
     6     4    77    1
     7     5    32    1
     8     5    78    1
     9     6    31    2
    10     7     8    1
    11     7     9    1
    12     7    12    1
    13     7    16    1
    14     8    10    1
    15     8    14    1
    16     8    20    1
    17     9    11    1
    18     9    19    1
    19     9    37    1
    20    10    13    1
    21    10    17    1
    22    10    38    1
    23    11    15    1
    24    11    18    1
    25    11    21    1
    26    12    13    1
    27    12    39    1
    28    12    40    1
    29    13    41    1
    30    14    15    1
    31    14    42    1
    32    14    43    1
    33    16    44    1
    34    16    45    1
    35    16    46    1
    36    17    24    1
    37    17    27    1
    38    17    47    1
    39    18    22    1
    40    18    28    1
    41    18    48    1
    42    19    23    1
    43    19    49    1
    44    19    50    1
    45    20    51    1
    46    20    52    1
    47    20    53    1
    48    21    54    1
    49    21    55    1
    50    21    56    1
    51    22    23    2
    52    22    26    1
    53    23    57    1
    54    24    29    1
    55    25    29    1
    56    25    30    1
    57    25    58    1
    58    26    31    1
    59    26    33    1
    60    26    34    1
    61    27    59    1
    62    27    60    1
    63    27    61    1
    64    28    32    2
    65    28    62    1
    66    29    63    1
    67    29    64    1
    68    30    35    1
    69    30    36    1
    70    31    32    1
    71    33    65    1
    72    33    66    1
    73    33    67    1
    74    34    68    1
    75    34    69    1
    76    34    70    1
    77    35    71    1
    78    35    72    1
    79    35    73    1
    80    36    74    1
    81    36    75    1
    82    36    76    1
