@<TRIPOS>MOLECULE
IMPHY017084
 25 26 0 0 0
SMALL
GASTEIGER

@<TRIPOS>ATOM
      1 O           3.7320    1.5000    0.0000 O.2     1  UNL1       -0.2921
      2 C           5.4646   -0.5000    0.0000 C.3     1  UNL1       -0.0210
      3 C           4.5981   -1.0000    0.0000 C.3     1  UNL1       -0.0214
      4 C           4.5981   -0.0000    0.0000 C.3     1  UNL1        0.0308
      5 C           3.7320   -1.5000    0.0000 C.3     1  UNL1       -0.0301
      6 C           5.9646   -1.3660    0.0000 C.3     1  UNL1       -0.0589
      7 C           5.9646    0.3660    0.0000 C.3     1  UNL1       -0.0589
      8 C           3.7320    0.5000    0.0000 C.2     1  UNL1        0.1625
      9 C           2.8660   -1.0000    0.0000 C.2     1  UNL1       -0.0775
     10 C           2.8660    0.0000    0.0000 C.2     1  UNL1       -0.0117
     11 C           2.0000    0.5000    0.0000 C.3     1  UNL1       -0.0367
     12 H           4.9080   -1.5370    0.0000 H       1  UNL1        0.0316
     13 H           4.9080    0.5370    0.0000 H       1  UNL1        0.0389
     14 H           3.3335   -1.9750    0.0000 H       1  UNL1        0.0311
     15 H           4.1306   -1.9750    0.0000 H       1  UNL1        0.0311
     16 H           5.4277   -1.6760    0.0000 H       1  UNL1        0.0235
     17 H           6.2746   -1.9030    0.0000 H       1  UNL1        0.0235
     18 H           6.5016   -1.0560    0.0000 H       1  UNL1        0.0235
     19 H           6.5016    0.0560    0.0000 H       1  UNL1        0.0235
     20 H           6.2746    0.9030    0.0000 H       1  UNL1        0.0235
     21 H           5.4277    0.6760    0.0000 H       1  UNL1        0.0235
     22 H           2.3291   -1.3100    0.0000 H       1  UNL1        0.0576
     23 H           2.3100    1.0369    0.0000 H       1  UNL1        0.0278
     24 H           1.4631    0.8100    0.0000 H       1  UNL1        0.0278
     25 H           1.6900   -0.0369    0.0000 H       1  UNL1        0.0278
@<TRIPOS>BOND
     1     1     8    2
     2     2     3    1
     3     2     4    1
     4     2     6    1
     5     2     7    1
     6     3     4    1
     7     3     5    1
     8     3    12    1
     9     4     8    1
    10     4    13    1
    11     5     9    1
    12     5    14    1
    13     5    15    1
    14     6    16    1
    15     6    17    1
    16     6    18    1
    17     7    19    1
    18     7    20    1
    19     7    21    1
    20     8    10    1
    21     9    10    2
    22     9    22    1
    23    10    11    1
    24    11    23    1
    25    11    24    1
    26    11    25    1
