@<TRIPOS>MOLECULE
IMPHY000513
 27 28 0 0 0
SMALL
GASTEIGER

@<TRIPOS>ATOM
      1 C        2517.3200 2480.0000    0.0000 C.2     1  UNL1        0.0780
      2 C        2482.6800 2460.0500    0.0000 C.2     1  UNL1        0.0780
      3 C        2448.0400 2480.0000    0.0000 C.2     1  UNL1        0.0110
      4 C        2413.4000 2460.0500    0.0000 C.ar    1  UNL1        0.0009
      5 C        2413.4000 2420.0500    0.0000 C.ar    1  UNL1        0.0033
      6 C        2378.7600 2400.0000    0.0000 C.ar    1  UNL1        0.0420
      7 C        2344.1200 2420.0500    0.0000 C.ar    1  UNL1        0.1957
      8 C        2344.1200 2460.0500    0.0000 C.ar    1  UNL1        0.0420
      9 C        2378.7600 2480.0000    0.0000 C.ar    1  UNL1        0.0033
     10 O        2309.4800 2400.0000    0.0000 O.3     1  UNL1       -0.2866
     11 C        2482.6800 2420.0500    0.0000 C.1     1  UNL1        0.1011
     12 N        2442.6800 2420.0500    0.0000 N.1     1  UNL1       -0.1908
     13 C        2551.9600 2460.0500    0.0000 C.2     1  UNL1        0.0109
     14 C        2586.6000 2480.0000    0.0000 C.ar    1  UNL1        0.0006
     15 C        2586.6000 2520.0000    0.0000 C.ar    1  UNL1       -0.0008
     16 C        2621.3400 2540.0500    0.0000 C.ar    1  UNL1        0.0211
     17 C        2621.3400 2580.0500    0.0000 C.3     1  UNL1        0.0549
     18 C        2586.7000 2600.0000    0.0000 C.2     1  UNL1       -0.0298
     19 C        2552.0600 2580.0500    0.0000 C.2     1  UNL1       -0.0475
     20 C        2517.4200 2600.0000    0.0000 C.3     1  UNL1        0.0260
     21 C        2552.0600 2540.0500    0.0000 C.3     1  UNL1        0.0260
     22 C        2655.8800 2520.0000    0.0000 C.ar    1  UNL1        0.1920
     23 C        2655.8800 2480.0000    0.0000 C.ar    1  UNL1        0.0417
     24 C        2621.3400 2460.0500    0.0000 C.ar    1  UNL1        0.0033
     25 O        2690.5200 2540.0500    0.0000 O.3     1  UNL1       -0.2869
     26 C        2517.3200 2520.0000    0.0000 C.1     1  UNL1        0.1011
     27 N        2557.3200 2520.0000    0.0000 N.1     1  UNL1       -0.1908
@<TRIPOS>BOND
     1     1     2    1
     2     1    13    2
     3     1    26    1
     4     2     3    2
     5     2    11    1
     6     3     4    1
     7     4     5   ar
     8     4     9   ar
     9     5     6   ar
    10     6     7   ar
    11     7    10    1
    12     8     7   ar
    13     9     8   ar
    14    11    12    3
    15    13    14    1
    16    14    15   ar
    17    14    24   ar
    18    15    16   ar
    19    16    17    1
    20    16    22   ar
    21    17    18    1
    22    18    19    2
    23    19    20    1
    24    19    21    1
    25    22    25    1
    26    23    22   ar
    27    24    23   ar
    28    26    27    3
