@<TRIPOS>MOLECULE
IMPHY012716
 52 55 0 0 0
SMALL
GASTEIGER

@<TRIPOS>ATOM
      1 O           4.2690   -1.2857    0.0000 O.3     1  UNL1       -0.3339
      2 O           6.0010   -1.2857    0.0000 O.3     1  UNL1       -0.4532
      3 O           4.2690   -4.2857    0.0000 O.3     1  UNL1       -0.3864
      4 O           2.5369   -3.2857    0.0000 O.3     1  UNL1       -0.3866
      5 O           6.0010   -3.2857    0.0000 O.3     1  UNL1       -0.3829
      6 O           6.8671    1.2143    0.0000 O.2     1  UNL1       -0.4507
      7 O           4.2690   -0.2857    0.0000 O.2     1  UNL1       -0.2830
      8 O           3.3648    1.2112    0.0000 O.3     1  UNL1       -0.5058
      9 O           5.1229    4.2836    0.0000 O.3     1  UNL1       -0.5065
     10 O          10.3312    0.2143    0.0000 O.3     1  UNL1       -0.5033
     11 O          10.3312   -1.7857    0.0000 O.3     1  UNL1       -0.5033
     12 C           4.2690   -3.2857    0.0000 C.3     1  UNL1        0.1151
     13 C           3.4030   -2.7857    0.0000 C.3     1  UNL1        0.1096
     14 C           5.1350   -2.7857    0.0000 C.3     1  UNL1        0.1454
     15 C           3.4030   -1.7857    0.0000 C.3     1  UNL1        0.0883
     16 C           5.1350   -1.7857    0.0000 C.3     1  UNL1        0.2311
     17 C           2.5369   -1.2857    0.0000 C.3     1  UNL1       -0.0360
     18 C           6.0010   -0.2857    0.0000 C.ar    1  UNL1        0.2138
     19 C           6.8671    0.2143    0.0000 C.ar    1  UNL1        0.1810
     20 C           5.1350    0.2143    0.0000 C.ar    1  UNL1        0.2382
     21 C           5.1350    1.2143    0.0000 C.ar    1  UNL1        0.1092
     22 C           6.0010    1.7143    0.0000 C.ar    1  UNL1        0.1465
     23 C           7.7331   -0.2857    0.0000 C.ar    1  UNL1        0.0247
     24 C           4.2250    1.7212    0.0000 C.ar    1  UNL1        0.1348
     25 C           6.0171    2.7558    0.0000 C.ar    1  UNL1        0.0231
     26 C           8.5991    0.2143    0.0000 C.ar    1  UNL1       -0.0057
     27 C           7.7331   -1.2857    0.0000 C.ar    1  UNL1       -0.0473
     28 C           4.2170    2.7628    0.0000 C.ar    1  UNL1        0.0223
     29 C           5.1191    3.2836    0.0000 C.ar    1  UNL1        0.1239
     30 C           9.4651   -0.2857    0.0000 C.ar    1  UNL1        0.1589
     31 C           8.5991   -1.7857    0.0000 C.ar    1  UNL1       -0.0159
     32 C           9.4651   -1.2857    0.0000 C.ar    1  UNL1        0.1583
     33 H           3.7320   -3.5957    0.0000 H       1  UNL1        0.0648
     34 H           3.4030   -3.4057    0.0000 H       1  UNL1        0.0646
     35 H           5.1350   -3.4057    0.0000 H       1  UNL1        0.0683
     36 H           3.4030   -1.1657    0.0000 H       1  UNL1        0.0621
     37 H           5.1350   -1.1657    0.0000 H       1  UNL1        0.1084
     38 H           2.8469   -0.7487    0.0000 H       1  UNL1        0.0255
     39 H           2.0000   -0.9757    0.0000 H       1  UNL1        0.0255
     40 H           2.2269   -1.8226    0.0000 H       1  UNL1        0.0255
     41 H           3.7320   -4.5957    0.0000 H       1  UNL1        0.2100
     42 H           2.0000   -2.9757    0.0000 H       1  UNL1        0.2100
     43 H           6.0010   -3.9057    0.0000 H       1  UNL1        0.2102
     44 H           6.5576    3.0596    0.0000 H       1  UNL1        0.0691
     45 H           8.5991    0.8343    0.0000 H       1  UNL1        0.0662
     46 H           7.1962   -1.5957    0.0000 H       1  UNL1        0.0626
     47 H           3.6788    3.0707    0.0000 H       1  UNL1        0.0691
     48 H           8.5991   -2.4057    0.0000 H       1  UNL1        0.0655
     49 H           2.8243    1.5150    0.0000 H       1  UNL1        0.2922
     50 H           4.5872    4.5957    0.0000 H       1  UNL1        0.2921
     51 H          10.3312    0.8343    0.0000 H       1  UNL1        0.2923
     52 H          10.8681   -1.4757    0.0000 H       1  UNL1        0.2923
@<TRIPOS>BOND
     1     1    15    1
     2     1    16    1
     3    16     2    1
     4     2    18    1
     5    12     3    1
     6     3    41    1
     7    13     4    1
     8     4    42    1
     9    14     5    1
    10     5    43    1
    11     6    19   ar
    12     6    22   ar
    13     7    20    2
    14     8    24    1
    15     8    49    1
    16     9    29    1
    17     9    50    1
    18    10    30    1
    19    10    51    1
    20    11    32    1
    21    11    52    1
    22    12    13    1
    23    12    14    1
    24    12    33    1
    25    13    15    1
    26    13    34    1
    27    14    16    1
    28    14    35    1
    29    15    17    1
    30    15    36    1
    31    16    37    1
    32    17    38    1
    33    17    39    1
    34    17    40    1
    35    18    19   ar
    36    18    20   ar
    37    19    23    1
    38    20    21   ar
    39    21    22   ar
    40    21    24   ar
    41    22    25   ar
    42    23    26   ar
    43    23    27   ar
    44    24    28   ar
    45    25    29   ar
    46    25    44    1
    47    26    30   ar
    48    26    45    1
    49    27    31   ar
    50    27    46    1
    51    28    29   ar
    52    28    47    1
    53    30    32   ar
    54    31    32   ar
    55    31    48    1
