@<TRIPOS>MOLECULE
IMPHY014482
 39 41 0 0 0
SMALL
GASTEIGER

@<TRIPOS>ATOM
      1 O           4.8764   -0.2994    0.0000 O.3     1  UNL1       -0.3683
      2 O           2.4060   -1.6300    0.0000 O.2     1  UNL1       -0.2967
      3 O           2.6183    2.5912    0.0000 O.3     1  UNL1       -0.4773
      4 O           2.4888    0.8640    0.0000 O.2     1  UNL1       -0.2455
      5 C           4.9832   -1.4761    0.0000 C.3     1  UNL1        0.0849
      6 C           4.0823   -1.0422    0.0000 C.3     1  UNL1        0.0560
      7 C           5.8842   -1.0422    0.0000 C.3     1  UNL1       -0.0114
      8 C           5.4832    0.7145    0.0000 C.3     1  UNL1        0.0668
      9 C           3.8598   -0.0673    0.0000 C.3     1  UNL1       -0.0288
     10 C           4.8472   -2.4609    0.0000 C.3     1  UNL1       -0.0159
     11 C           6.1067   -0.0673    0.0000 C.3     1  UNL1       -0.0208
     12 C           4.4832    0.7145    0.0000 C.3     1  UNL1        0.0176
     13 C           3.3972   -1.7625    0.0000 C.2     1  UNL1        0.1420
     14 C           3.8690   -2.6375    0.0000 C.3     1  UNL1        0.0091
     15 C           3.1813   -0.6084    0.0000 C.3     1  UNL1       -0.0501
     16 C           6.6660   -1.6657    0.0000 C.3     1  UNL1       -0.0597
     17 C           4.0493    1.6155    0.0000 C.2     1  UNL1        0.0349
     18 C           3.0522    1.6902    0.0000 C.2     1  UNL1        0.3326
     19 C           4.6127    2.4417    0.0000 C.2     1  UNL1       -0.0884
     20 H           5.8148   -1.6584    0.0000 H       1  UNL1        0.0327
     21 H           5.6724    1.5432    0.0000 H       1  UNL1        0.0602
     22 H           3.4732    0.4174    0.0000 H       1  UNL1        0.0282
     23 H           3.3012   -0.3363    0.0000 H       1  UNL1        0.0282
     24 H           4.8927   -3.0792    0.0000 H       1  UNL1        0.0297
     25 H           5.4669   -2.4807    0.0000 H       1  UNL1        0.0297
     26 H           6.6653   -0.3363    0.0000 H       1  UNL1        0.0294
     27 H           6.4933    0.4174    0.0000 H       1  UNL1        0.0294
     28 H           3.8671    0.7839    0.0000 H       1  UNL1        0.0376
     29 H           3.2954   -2.8728    0.0000 H       1  UNL1        0.0343
     30 H           4.0427   -3.2327    0.0000 H       1  UNL1        0.0343
     31 H           3.4503   -0.0498    0.0000 H       1  UNL1        0.0240
     32 H           2.6227   -0.3394    0.0000 H       1  UNL1        0.0240
     33 H           2.9123   -1.1670    0.0000 H       1  UNL1        0.0240
     34 H           6.2795   -2.1505    0.0000 H       1  UNL1        0.0233
     35 H           7.1508   -2.0523    0.0000 H       1  UNL1        0.0233
     36 H           7.0526   -1.1810    0.0000 H       1  UNL1        0.0233
     37 H           5.2309    2.3954    0.0000 H       1  UNL1        0.0540
     38 H           4.3437    3.0003    0.0000 H       1  UNL1        0.0540
     39 H           2.0000    2.6375    0.0000 H       1  UNL1        0.2954
@<TRIPOS>BOND
     1     1     5    1
     2     1     8    1
     3     2    13    2
     4     3    18    1
     5     3    39    1
     6     4    18    2
     7     5     6    1
     8     5     7    1
     9     5    10    1
    10     6     9    1
    11     6    13    1
    12     6    15    1
    13     7    11    1
    14     7    16    1
    15     7    20    1
    16     8    11    1
    17     8    12    1
    18     8    21    1
    19     9    12    1
    20     9    22    1
    21     9    23    1
    22    10    14    1
    23    10    24    1
    24    10    25    1
    25    11    26    1
    26    11    27    1
    27    12    17    1
    28    12    28    1
    29    13    14    1
    30    14    29    1
    31    14    30    1
    32    15    31    1
    33    15    32    1
    34    15    33    1
    35    16    34    1
    36    16    35    1
    37    16    36    1
    38    17    18    1
    39    17    19    2
    40    19    37    1
    41    19    38    1
