@<TRIPOS>MOLECULE
IMPHY002126
 80 84 0 0 0
SMALL
GASTEIGER

@<TRIPOS>ATOM
      1 O           3.9891   -3.1090    0.0000 O.2     1  UNL1       -0.3004
      2 O          11.1246    3.0771    0.0000 O.2     1  UNL1       -0.2971
      3 C           6.6507   -0.5673    0.0000 C.3     1  UNL1       -0.0230
      4 C           5.7847   -0.0673    0.0000 C.3     1  UNL1       -0.0227
      5 C           7.5167   -0.0673    0.0000 C.3     1  UNL1       -0.0294
      6 C           7.5167    0.9327    0.0000 C.3     1  UNL1       -0.0254
      7 C           4.8746   -0.5741    0.0000 C.3     1  UNL1       -0.0226
      8 C           8.4106    1.4674    0.0000 C.3     1  UNL1       -0.0289
      9 C           5.7847    0.9327    0.0000 C.3     1  UNL1       -0.0463
     10 C           4.8666   -1.6157    0.0000 C.3     1  UNL1        0.0294
     11 C           6.6507    1.4327    0.0000 C.3     1  UNL1       -0.0466
     12 C           9.3167    0.9535    0.0000 C.3     1  UNL1       -0.0195
     13 C           6.6667   -1.6088    0.0000 C.3     1  UNL1       -0.0460
     14 C           8.4106   -0.6019    0.0000 C.3     1  UNL1       -0.0487
     15 C           5.7687   -2.1365    0.0000 C.3     1  UNL1       -0.0401
     16 C           9.3167   -0.0881    0.0000 C.3     1  UNL1       -0.0464
     17 C           3.9478   -0.0100    0.0000 C.3     1  UNL1       -0.0436
     18 C           7.5167   -1.0673    0.0000 C.3     1  UNL1       -0.0588
     19 C           4.9186    0.4327    0.0000 C.3     1  UNL1       -0.0588
     20 C           7.5167    1.9327    0.0000 C.3     1  UNL1       -0.0590
     21 C           3.9312   -2.1654    0.0000 C.3     1  UNL1       -0.0402
     22 C           8.3856    2.5521    0.0000 C.3     1  UNL1       -0.0425
     23 C           2.9999   -0.5380    0.0000 C.3     1  UNL1       -0.0346
     24 C          10.2605    1.4888    0.0000 C.3     1  UNL1        0.0203
     25 C           2.9916   -1.6229    0.0000 C.3     1  UNL1       -0.0470
     26 C          10.1866    0.4602    0.0000 C.3     1  UNL1       -0.0587
     27 C           9.3167    3.1090    0.0000 C.3     1  UNL1        0.0064
     28 C           4.8589   -2.6157    0.0000 C.2     1  UNL1        0.1267
     29 C          10.2605    2.5738    0.0000 C.2     1  UNL1        0.1367
     30 C           2.0000   -0.5264    0.0000 C.3     1  UNL1       -0.0598
     31 C           2.5100    0.3338    0.0000 C.3     1  UNL1       -0.0598
     32 C          11.1246    0.9854    0.0000 C.3     1  UNL1       -0.0552
     33 H           8.2561    0.3520    0.0000 H       1  UNL1        0.0312
     34 H           5.6058   -1.0076    0.0000 H       1  UNL1        0.0316
     35 H           9.1401    1.9037    0.0000 H       1  UNL1        0.0312
     36 H           5.5726    1.5153    0.0000 H       1  UNL1        0.0271
     37 H           5.1741    0.8251    0.0000 H       1  UNL1        0.0271
     38 H           7.0492    1.9077    0.0000 H       1  UNL1        0.0271
     39 H           6.2522    1.9077    0.0000 H       1  UNL1        0.0271
     40 H           6.8848   -2.1892    0.0000 H       1  UNL1        0.0271
     41 H           7.2759   -1.4933    0.0000 H       1  UNL1        0.0271
     42 H           8.0060   -1.0717    0.0000 H       1  UNL1        0.0268
     43 H           8.8043   -1.0810    0.0000 H       1  UNL1        0.0268
     44 H           5.3714   -2.6125    0.0000 H       1  UNL1        0.0275
     45 H           6.1697   -2.6094    0.0000 H       1  UNL1        0.0275
     46 H           9.5258   -0.6718    0.0000 H       1  UNL1        0.0271
     47 H           9.9276    0.0180    0.0000 H       1  UNL1        0.0271
     48 H           4.3560    0.4566    0.0000 H       1  UNL1        0.0274
     49 H           3.5579    0.4720    0.0000 H       1  UNL1        0.0274
     50 H           7.2067   -1.6042    0.0000 H       1  UNL1        0.0235
     51 H           8.0536   -1.3773    0.0000 H       1  UNL1        0.0235
     52 H           7.8267   -0.5303    0.0000 H       1  UNL1        0.0235
     53 H           5.2286    0.9697    0.0000 H       1  UNL1        0.0235
     54 H           4.3817    0.7427    0.0000 H       1  UNL1        0.0235
     55 H           4.6086   -0.1042    0.0000 H       1  UNL1        0.0235
     56 H           8.1367    1.9327    0.0000 H       1  UNL1        0.0235
     57 H           7.5167    2.5527    0.0000 H       1  UNL1        0.0235
     58 H           6.8967    1.9327    0.0000 H       1  UNL1        0.0235
     59 H           3.5339   -2.6414    0.0000 H       1  UNL1        0.0275
     60 H           4.3322   -2.6383    0.0000 H       1  UNL1        0.0275
     61 H           8.1631    3.1308    0.0000 H       1  UNL1        0.0272
     62 H           7.7773    2.4319    0.0000 H       1  UNL1        0.0272
     63 H          10.7980    1.7977    0.0000 H       1  UNL1        0.0380
     64 H           2.3816   -1.5122    0.0000 H       1  UNL1        0.0271
     65 H           2.7780   -2.2050    0.0000 H       1  UNL1        0.0271
     66 H           9.8807   -0.0791    0.0000 H       1  UNL1        0.0235
     67 H          10.7259    0.1544    0.0000 H       1  UNL1        0.0235
     68 H          10.4924    0.9995    0.0000 H       1  UNL1        0.0235
     69 H           9.7103    3.5880    0.0000 H       1  UNL1        0.0342
     70 H           8.9121    3.5788    0.0000 H       1  UNL1        0.0342
     71 H           5.3934   -2.9298    0.0000 H       1  UNL1        0.1032
     72 H           2.0072    0.0935    0.0000 H       1  UNL1        0.0235
     73 H           1.3800   -0.5193    0.0000 H       1  UNL1        0.0235
     74 H           1.9928   -1.1464    0.0000 H       1  UNL1        0.0235
     75 H           3.0505    0.6375    0.0000 H       1  UNL1        0.0235
     76 H           2.2062    0.8742    0.0000 H       1  UNL1        0.0235
     77 H           1.9695    0.0300    0.0000 H       1  UNL1        0.0235
     78 H          10.8125    0.4497    0.0000 H       1  UNL1        0.0237
     79 H          11.6603    0.6734    0.0000 H       1  UNL1        0.0237
     80 H          11.4367    1.5212    0.0000 H       1  UNL1        0.0237
@<TRIPOS>BOND
     1     1    28    2
     2     2    29    2
     3     3     4    1
     4     3     5    1
     5     3    13    1
     6     3    18    1
     7     4     7    1
     8     4     9    1
     9     4    19    1
    10     5     6    1
    11     5    14    1
    12     5    33    1
    13     6     8    1
    14     6    11    1
    15     6    20    1
    16     7    10    1
    17     7    17    1
    18     7    34    1
    19     8    12    1
    20     8    22    1
    21     8    35    1
    22     9    11    1
    23     9    36    1
    24     9    37    1
    25    10    15    1
    26    10    21    1
    27    10    28    1
    28    11    38    1
    29    11    39    1
    30    12    16    1
    31    12    24    1
    32    12    26    1
    33    13    15    1
    34    13    40    1
    35    13    41    1
    36    14    16    1
    37    14    42    1
    38    14    43    1
    39    15    44    1
    40    15    45    1
    41    16    46    1
    42    16    47    1
    43    17    23    1
    44    17    48    1
    45    17    49    1
    46    18    50    1
    47    18    51    1
    48    18    52    1
    49    19    53    1
    50    19    54    1
    51    19    55    1
    52    20    56    1
    53    20    57    1
    54    20    58    1
    55    21    25    1
    56    21    59    1
    57    21    60    1
    58    22    27    1
    59    22    61    1
    60    22    62    1
    61    23    25    1
    62    23    30    1
    63    23    31    1
    64    24    29    1
    65    24    32    1
    66    24    63    1
    67    25    64    1
    68    25    65    1
    69    26    66    1
    70    26    67    1
    71    26    68    1
    72    27    29    1
    73    27    69    1
    74    27    70    1
    75    28    71    1
    76    30    72    1
    77    30    73    1
    78    30    74    1
    79    31    75    1
    80    31    76    1
    81    31    77    1
    82    32    78    1
    83    32    79    1
    84    32    80    1
