@<TRIPOS>MOLECULE
IMPHY013792
 22 22 0 0 0
SMALL
GASTEIGER

@<TRIPOS>ATOM
      1 O           3.7320    1.2500    0.0000 O.3     1  UNL1       -0.3755
      2 C           2.8660    0.7500    0.0000 C.3     1  UNL1        0.0805
      3 C           2.8660   -0.2500    0.0000 C.ar    1  UNL1       -0.0192
      4 C           2.0000    1.2500    0.0000 C.3     1  UNL1       -0.0345
      5 C           2.0000   -0.7500    0.0000 C.ar    1  UNL1       -0.0561
      6 C           3.7320   -0.7500    0.0000 C.ar    1  UNL1       -0.0561
      7 C           2.0000   -1.7500    0.0000 C.ar    1  UNL1       -0.0614
      8 C           3.7320   -1.7500    0.0000 C.ar    1  UNL1       -0.0614
      9 C           2.8660   -2.2500    0.0000 C.ar    1  UNL1       -0.0617
     10 C           3.7320    2.2500    0.0000 C.3     1  UNL1        0.0372
     11 H           2.8660    1.3700    0.0000 H       1  UNL1        0.0643
     12 H           2.3100    1.7869    0.0000 H       1  UNL1        0.0258
     13 H           1.4631    1.5600    0.0000 H       1  UNL1        0.0258
     14 H           1.6900    0.7131    0.0000 H       1  UNL1        0.0258
     15 H           1.4631   -0.4400    0.0000 H       1  UNL1        0.0621
     16 H           4.2690   -0.4400    0.0000 H       1  UNL1        0.0621
     17 H           1.4631   -2.0600    0.0000 H       1  UNL1        0.0618
     18 H           4.2690   -2.0600    0.0000 H       1  UNL1        0.0618
     19 H           2.8660   -2.8700    0.0000 H       1  UNL1        0.0618
     20 H           4.3520    2.2500    0.0000 H       1  UNL1        0.0524
     21 H           3.7320    2.8700    0.0000 H       1  UNL1        0.0524
     22 H           3.1120    2.2500    0.0000 H       1  UNL1        0.0524
@<TRIPOS>BOND
     1     1     2    1
     2     1    10    1
     3     2     3    1
     4     2     4    1
     5     2    11    1
     6     3     5   ar
     7     3     6   ar
     8     4    12    1
     9     4    13    1
    10     4    14    1
    11     5     7   ar
    12     5    15    1
    13     6     8   ar
    14     6    16    1
    15     7     9   ar
    16     7    17    1
    17     8     9   ar
    18     8    18    1
    19     9    19    1
    20    10    20    1
    21    10    21    1
    22    10    22    1
