@<TRIPOS>MOLECULE
IMPHY005825
 50 55 0 0 0
SMALL
GASTEIGER

@<TRIPOS>ATOM
      1 O           3.8076    1.3773    0.0000 O.3     1  UNL1       -0.4599
      2 O           8.5621   -2.9218    0.0000 O.3     1  UNL1       -0.3947
      3 O           5.0332    2.6012    0.0000 O.2     1  UNL1       -0.2512
      4 N           6.1798   -0.7767    0.0000 N.3     1  UNL1       -0.2879
      5 N           4.0899   -1.7322    0.0000 N.2     1  UNL1       -0.2536
      6 C           6.4862    0.6648    0.0000 C.3     1  UNL1        0.0163
      7 C           5.9169    0.0325    0.0000 C.3     1  UNL1        0.0191
      8 C           4.5153   -0.4229    0.0000 C.3     1  UNL1        0.0760
      9 C           6.7056   -2.3951    0.0000 C.3     1  UNL1       -0.0253
     10 C           4.5142    0.6697    0.0000 C.3     1  UNL1        0.1223
     11 C           5.6105   -1.4090    0.0000 C.3     1  UNL1        0.0507
     12 C           5.0846    0.2094    0.0000 C.3     1  UNL1       -0.0185
     13 C           5.8734   -2.2182    0.0000 C.3     1  UNL1       -0.0284
     14 C           7.2750   -1.7628    0.0000 C.3     1  UNL1        0.0009
     15 C           7.0121   -0.9536    0.0000 C.3     1  UNL1        0.0137
     16 C           4.7782   -1.2321    0.0000 C.2     1  UNL1        0.0507
     17 C           3.6645   -0.4229    0.0000 C.ar    1  UNL1       -0.0067
     18 C           8.2531   -1.9707    0.0000 C.3     1  UNL1        0.0487
     19 C           7.6812   -0.2105    0.0000 C.3     1  UNL1       -0.0491
     20 C           3.4016   -1.2321    0.0000 C.ar    1  UNL1        0.0681
     21 C           3.0952    0.2094    0.0000 C.ar    1  UNL1       -0.0555
     22 C           2.5693   -1.4090    0.0000 C.ar    1  UNL1       -0.0360
     23 C           4.0671    2.3431    0.0000 C.2     1  UNL1        0.3043
     24 C           2.2629    0.0325    0.0000 C.ar    1  UNL1       -0.0613
     25 C           2.0000   -0.7767    0.0000 C.ar    1  UNL1       -0.0597
     26 C           3.3605    3.0507    0.0000 C.3     1  UNL1        0.0332
     27 H           6.9092    1.1181    0.0000 H       1  UNL1        0.0355
     28 H           5.7347    0.8627    0.0000 H       1  UNL1        0.0467
     29 H           6.9683   -3.2035    0.0000 H       1  UNL1        0.0310
     30 H           4.7523    1.2421    0.0000 H       1  UNL1        0.0750
     31 H           5.0417   -2.0407    0.0000 H       1  UNL1        0.0525
     32 H           5.3169    0.7842    0.0000 H       1  UNL1        0.0294
     33 H           4.5588    0.5379    0.0000 H       1  UNL1        0.0294
     34 H           5.2594   -2.3045    0.0000 H       1  UNL1        0.0287
     35 H           5.8518   -2.8378    0.0000 H       1  UNL1        0.0287
     36 H           7.4666   -2.3525    0.0000 H       1  UNL1        0.0341
     37 H           6.8205   -0.3639    0.0000 H       1  UNL1        0.0464
     38 H           8.8671   -1.8844    0.0000 H       1  UNL1        0.0560
     39 H           8.2748   -1.3511    0.0000 H       1  UNL1        0.0560
     40 H           8.1419   -0.6253    0.0000 H       1  UNL1        0.0245
     41 H           8.0960    0.2503    0.0000 H       1  UNL1        0.0245
     42 H           7.2204    0.2044    0.0000 H       1  UNL1        0.0245
     43 H           3.2868    0.7990    0.0000 H       1  UNL1        0.0621
     44 H           2.3777   -1.9986    0.0000 H       1  UNL1        0.0639
     45 H           9.1686   -3.0507    0.0000 H       1  UNL1        0.2094
     46 H           1.8481    0.4932    0.0000 H       1  UNL1        0.0618
     47 H           1.3936   -0.9056    0.0000 H       1  UNL1        0.0618
     48 H           3.7992    3.4888    0.0000 H       1  UNL1        0.0342
     49 H           2.9224    3.4894    0.0000 H       1  UNL1        0.0342
     50 H           2.9217    2.6126    0.0000 H       1  UNL1        0.0342
@<TRIPOS>BOND
     1     1    10    1
     2     1    23    1
     3     2    18    1
     4     2    45    1
     5     3    23    2
     6     4     7    1
     7     4    11    1
     8     4    15    1
     9     5    16    2
    10     5    20    1
    11     6     7    1
    12     6     9    1
    13     6    10    1
    14     6    27    1
    15     7    12    1
    16     7    28    1
    17     8    10    1
    18     8    12    1
    19     8    16    1
    20     8    17    1
    21     9    13    1
    22     9    14    1
    23     9    29    1
    24    10    30    1
    25    11    13    1
    26    11    16    1
    27    11    31    1
    28    12    32    1
    29    12    33    1
    30    13    34    1
    31    13    35    1
    32    14    15    1
    33    14    18    1
    34    14    36    1
    35    15    19    1
    36    15    37    1
    37    17    20   ar
    38    17    21   ar
    39    18    38    1
    40    18    39    1
    41    19    40    1
    42    19    41    1
    43    19    42    1
    44    20    22   ar
    45    21    24   ar
    46    21    43    1
    47    22    25   ar
    48    22    44    1
    49    23    26    1
    50    24    25   ar
    51    24    46    1
    52    25    47    1
    53    26    48    1
    54    26    49    1
    55    26    50    1
