@<TRIPOS>MOLECULE
IMPHY015284
 53 52 0 0 0
SMALL
GASTEIGER

@<TRIPOS>ATOM
      1 C           7.1962    0.7500    0.0000 C.3     1  UNL1       -0.0531
      2 C           8.0622    0.2500    0.0000 C.3     1  UNL1       -0.0531
      3 C           6.3301    0.2500    0.0000 C.3     1  UNL1       -0.0531
      4 C           8.9282    0.7500    0.0000 C.3     1  UNL1       -0.0531
      5 C           5.4641    0.7500    0.0000 C.3     1  UNL1       -0.0530
      6 C           9.7942    0.2500    0.0000 C.3     1  UNL1       -0.0531
      7 C           4.5981    0.2500    0.0000 C.3     1  UNL1       -0.0528
      8 C          10.6603    0.7500    0.0000 C.3     1  UNL1       -0.0531
      9 C           3.7320    0.7500    0.0000 C.3     1  UNL1       -0.0507
     10 C          11.5263    0.2500    0.0000 C.3     1  UNL1       -0.0531
     11 C           2.8660    0.2500    0.0000 C.3     1  UNL1       -0.0467
     12 C          12.3923    0.7500    0.0000 C.3     1  UNL1       -0.0531
     13 C          13.2583    0.2500    0.0000 C.3     1  UNL1       -0.0533
     14 C           2.0000    0.7500    0.0000 C.3     1  UNL1       -0.0627
     15 C           2.8660   -0.7500    0.0000 C.3     1  UNL1       -0.0627
     16 C          14.1244    0.7500    0.0000 C.3     1  UNL1       -0.0559
     17 C          14.9904    0.2500    0.0000 C.3     1  UNL1       -0.0653
     18 H           7.5947    1.2250    0.0000 H       1  UNL1        0.0265
     19 H           6.7976    1.2250    0.0000 H       1  UNL1        0.0265
     20 H           7.6636   -0.2249    0.0000 H       1  UNL1        0.0265
     21 H           8.4607   -0.2249    0.0000 H       1  UNL1        0.0265
     22 H           5.9316   -0.2249    0.0000 H       1  UNL1        0.0265
     23 H           6.7287   -0.2249    0.0000 H       1  UNL1        0.0265
     24 H           9.3267    1.2250    0.0000 H       1  UNL1        0.0265
     25 H           8.5297    1.2250    0.0000 H       1  UNL1        0.0265
     26 H           5.8626    1.2250    0.0000 H       1  UNL1        0.0265
     27 H           5.0656    1.2250    0.0000 H       1  UNL1        0.0265
     28 H           9.3957   -0.2249    0.0000 H       1  UNL1        0.0265
     29 H          10.1928   -0.2249    0.0000 H       1  UNL1        0.0265
     30 H           4.1996   -0.2249    0.0000 H       1  UNL1        0.0265
     31 H           4.9966   -0.2249    0.0000 H       1  UNL1        0.0265
     32 H          11.0588    1.2250    0.0000 H       1  UNL1        0.0265
     33 H          10.2617    1.2250    0.0000 H       1  UNL1        0.0265
     34 H           4.1306    1.2250    0.0000 H       1  UNL1        0.0268
     35 H           3.3335    1.2250    0.0000 H       1  UNL1        0.0268
     36 H          11.1278   -0.2249    0.0000 H       1  UNL1        0.0265
     37 H          11.9248   -0.2249    0.0000 H       1  UNL1        0.0265
     38 H           2.8660    0.8700    0.0000 H       1  UNL1        0.0295
     39 H          12.7908    1.2250    0.0000 H       1  UNL1        0.0265
     40 H          11.9938    1.2250    0.0000 H       1  UNL1        0.0265
     41 H          12.8598   -0.2249    0.0000 H       1  UNL1        0.0265
     42 H          13.6569   -0.2249    0.0000 H       1  UNL1        0.0265
     43 H           2.3100    1.2869    0.0000 H       1  UNL1        0.0232
     44 H           1.4631    1.0600    0.0000 H       1  UNL1        0.0232
     45 H           1.6900    0.2131    0.0000 H       1  UNL1        0.0232
     46 H           2.2460   -0.7500    0.0000 H       1  UNL1        0.0232
     47 H           2.8660   -1.3700    0.0000 H       1  UNL1        0.0232
     48 H           3.4860   -0.7500    0.0000 H       1  UNL1        0.0232
     49 H          14.5229    1.2250    0.0000 H       1  UNL1        0.0263
     50 H          13.7258    1.2250    0.0000 H       1  UNL1        0.0263
     51 H          14.6804   -0.2869    0.0000 H       1  UNL1        0.0230
     52 H          15.5273   -0.0600    0.0000 H       1  UNL1        0.0230
     53 H          15.3004    0.7869    0.0000 H       1  UNL1        0.0230
@<TRIPOS>BOND
     1     1     2    1
     2     1     3    1
     3     1    18    1
     4     1    19    1
     5     2     4    1
     6     2    20    1
     7     2    21    1
     8     3     5    1
     9     3    22    1
    10     3    23    1
    11     4     6    1
    12     4    24    1
    13     4    25    1
    14     5     7    1
    15     5    26    1
    16     5    27    1
    17     6     8    1
    18     6    28    1
    19     6    29    1
    20     7     9    1
    21     7    30    1
    22     7    31    1
    23     8    10    1
    24     8    32    1
    25     8    33    1
    26     9    11    1
    27     9    34    1
    28     9    35    1
    29    10    12    1
    30    10    36    1
    31    10    37    1
    32    11    14    1
    33    11    15    1
    34    11    38    1
    35    12    13    1
    36    12    39    1
    37    12    40    1
    38    13    16    1
    39    13    41    1
    40    13    42    1
    41    14    43    1
    42    14    44    1
    43    14    45    1
    44    15    46    1
    45    15    47    1
    46    15    48    1
    47    16    17    1
    48    16    49    1
    49    16    50    1
    50    17    51    1
    51    17    52    1
    52    17    53    1
