@<TRIPOS>MOLECULE
IMPHY017405
 53 52 0 0 0
SMALL
GASTEIGER

@<TRIPOS>ATOM
      1 O           2.0000    0.2500    0.0000 O.2     1  UNL1       -0.3010
      2 C          12.3923    0.2500    0.0000 C.3     1  UNL1       -0.0531
      3 C          11.5263   -0.2500    0.0000 C.3     1  UNL1       -0.0531
      4 C          13.2583   -0.2500    0.0000 C.3     1  UNL1       -0.0531
      5 C          10.6603    0.2500    0.0000 C.3     1  UNL1       -0.0530
      6 C          14.1244    0.2500    0.0000 C.3     1  UNL1       -0.0531
      7 C           9.7942   -0.2500    0.0000 C.3     1  UNL1       -0.0528
      8 C          14.9904   -0.2500    0.0000 C.3     1  UNL1       -0.0531
      9 C           8.9282    0.2500    0.0000 C.3     1  UNL1       -0.0496
     10 C          15.8564    0.2500    0.0000 C.3     1  UNL1       -0.0533
     11 C           8.0622   -0.2500    0.0000 C.3     1  UNL1       -0.0348
     12 C          16.7224   -0.2500    0.0000 C.3     1  UNL1       -0.0559
     13 C           7.1962    0.2500    0.0000 C.2     1  UNL1       -0.0879
     14 C          17.5885    0.2500    0.0000 C.3     1  UNL1       -0.0653
     15 C           6.3301   -0.2500    0.0000 C.2     1  UNL1       -0.0879
     16 C           5.4641    0.2500    0.0000 C.3     1  UNL1       -0.0344
     17 C           4.5981   -0.2500    0.0000 C.3     1  UNL1       -0.0432
     18 C           3.7320    0.2500    0.0000 C.3     1  UNL1        0.0031
     19 C           2.8660   -0.2500    0.0000 C.2     1  UNL1        0.1203
     20 H          12.7908    0.7249    0.0000 H       1  UNL1        0.0265
     21 H          11.9938    0.7249    0.0000 H       1  UNL1        0.0265
     22 H          11.1278   -0.7249    0.0000 H       1  UNL1        0.0265
     23 H          11.9248   -0.7249    0.0000 H       1  UNL1        0.0265
     24 H          12.8598   -0.7249    0.0000 H       1  UNL1        0.0265
     25 H          13.6569   -0.7249    0.0000 H       1  UNL1        0.0265
     26 H          11.0588    0.7249    0.0000 H       1  UNL1        0.0265
     27 H          10.2617    0.7249    0.0000 H       1  UNL1        0.0265
     28 H          14.5229    0.7249    0.0000 H       1  UNL1        0.0265
     29 H          13.7258    0.7249    0.0000 H       1  UNL1        0.0265
     30 H           9.3957   -0.7249    0.0000 H       1  UNL1        0.0265
     31 H          10.1928   -0.7249    0.0000 H       1  UNL1        0.0265
     32 H          14.5919   -0.7249    0.0000 H       1  UNL1        0.0265
     33 H          15.3889   -0.7249    0.0000 H       1  UNL1        0.0265
     34 H           9.3267    0.7249    0.0000 H       1  UNL1        0.0268
     35 H           8.5297    0.7249    0.0000 H       1  UNL1        0.0268
     36 H          16.2549    0.7249    0.0000 H       1  UNL1        0.0265
     37 H          15.4579    0.7249    0.0000 H       1  UNL1        0.0265
     38 H           7.6636   -0.7249    0.0000 H       1  UNL1        0.0307
     39 H           8.4607   -0.7249    0.0000 H       1  UNL1        0.0307
     40 H          16.3239   -0.7249    0.0000 H       1  UNL1        0.0263
     41 H          17.1210   -0.7249    0.0000 H       1  UNL1        0.0263
     42 H           7.1962    0.8700    0.0000 H       1  UNL1        0.0569
     43 H          17.8985   -0.2869    0.0000 H       1  UNL1        0.0230
     44 H          18.1254    0.5600    0.0000 H       1  UNL1        0.0230
     45 H          17.2785    0.7869    0.0000 H       1  UNL1        0.0230
     46 H           6.3301   -0.8700    0.0000 H       1  UNL1        0.0569
     47 H           5.8626    0.7249    0.0000 H       1  UNL1        0.0307
     48 H           5.0656    0.7249    0.0000 H       1  UNL1        0.0307
     49 H           4.1996   -0.7249    0.0000 H       1  UNL1        0.0272
     50 H           4.9966   -0.7249    0.0000 H       1  UNL1        0.0272
     51 H           4.1306    0.7249    0.0000 H       1  UNL1        0.0339
     52 H           3.3335    0.7249    0.0000 H       1  UNL1        0.0339
     53 H           2.8660   -0.8700    0.0000 H       1  UNL1        0.1026
@<TRIPOS>BOND
     1     1    19    2
     2     2     3    1
     3     2     4    1
     4     2    20    1
     5     2    21    1
     6     3     5    1
     7     3    22    1
     8     3    23    1
     9     4     6    1
    10     4    24    1
    11     4    25    1
    12     5     7    1
    13     5    26    1
    14     5    27    1
    15     6     8    1
    16     6    28    1
    17     6    29    1
    18     7     9    1
    19     7    30    1
    20     7    31    1
    21     8    10    1
    22     8    32    1
    23     8    33    1
    24     9    11    1
    25     9    34    1
    26     9    35    1
    27    10    12    1
    28    10    36    1
    29    10    37    1
    30    11    13    1
    31    11    38    1
    32    11    39    1
    33    12    14    1
    34    12    40    1
    35    12    41    1
    36    13    15    2
    37    13    42    1
    38    14    43    1
    39    14    44    1
    40    14    45    1
    41    15    16    1
    42    15    46    1
    43    16    17    1
    44    16    47    1
    45    16    48    1
    46    17    18    1
    47    17    49    1
    48    17    50    1
    49    18    19    1
    50    18    51    1
    51    18    52    1
    52    19    53    1
