@<TRIPOS>MOLECULE
IMPHY002256
 43 46 0 0 0
SMALL
GASTEIGER

@<TRIPOS>ATOM
      1 O           3.7782    1.4936    0.0000 O.3     1  UNL1       -0.4908
      2 O           5.5442    2.5314    0.0000 O.3     1  UNL1       -0.4914
      3 N           6.3903   -2.0348    0.0000 N.3     1  UNL1       -0.2978
      4 C           5.5321   -1.5378    0.0000 C.3     1  UNL1        0.0403
      5 C           5.5321   -0.5378    0.0000 C.ar    1  UNL1       -0.0153
      6 C           4.6660   -2.0378    0.0000 C.3     1  UNL1       -0.0073
      7 C           6.4421   -0.0310    0.0000 C.ar    1  UNL1       -0.0372
      8 C           7.2558   -1.5506    0.0000 C.3     1  UNL1        0.0032
      9 C           4.6660   -0.0378    0.0000 C.ar    1  UNL1        0.0326
     10 C           7.2814   -0.5592    0.0000 C.3     1  UNL1       -0.0144
     11 C           3.8000   -1.5378    0.0000 C.ar    1  UNL1       -0.0377
     12 C           3.8000   -0.5378    0.0000 C.ar    1  UNL1       -0.0107
     13 C           4.6500    1.0037    0.0000 C.ar    1  UNL1        0.1695
     14 C           6.4501    1.0106    0.0000 C.ar    1  UNL1       -0.0127
     15 C           6.3829   -3.0348    0.0000 C.3     1  UNL1       -0.0122
     16 C           5.5480    1.5314    0.0000 C.ar    1  UNL1        0.1624
     17 C           2.9061   -2.0725    0.0000 C.ar    1  UNL1       -0.0579
     18 C           2.9061   -0.0032    0.0000 C.ar    1  UNL1       -0.0536
     19 C           2.0000   -1.5587    0.0000 C.ar    1  UNL1       -0.0615
     20 C           2.0000   -0.5170    0.0000 C.ar    1  UNL1       -0.0612
     21 C           3.7667    2.4936    0.0000 C.3     1  UNL1        0.0790
     22 C           6.4082    3.0348    0.0000 C.3     1  UNL1        0.0790
     23 H           5.5315   -2.3878    0.0000 H       1  UNL1        0.0515
     24 H           4.2675   -2.5128    0.0000 H       1  UNL1        0.0332
     25 H           5.0646   -2.5128    0.0000 H       1  UNL1        0.0332
     26 H           7.4575   -2.1369    0.0000 H       1  UNL1        0.0430
     27 H           7.8685   -1.4562    0.0000 H       1  UNL1        0.0430
     28 H           7.8885   -0.6851    0.0000 H       1  UNL1        0.0326
     29 H           7.5131    0.0158    0.0000 H       1  UNL1        0.0326
     30 H           6.9882    1.3185    0.0000 H       1  UNL1        0.0658
     31 H           5.7629   -3.0302    0.0000 H       1  UNL1        0.0391
     32 H           6.3783   -3.6547    0.0000 H       1  UNL1        0.0391
     33 H           7.0029   -3.0393    0.0000 H       1  UNL1        0.0391
     34 H           2.9132   -2.6925    0.0000 H       1  UNL1        0.0620
     35 H           2.9132    0.6168    0.0000 H       1  UNL1        0.0624
     36 H           1.4643   -1.8707    0.0000 H       1  UNL1        0.0618
     37 H           1.4643   -0.2050    0.0000 H       1  UNL1        0.0618
     38 H           4.3866    2.5007    0.0000 H       1  UNL1        0.0660
     39 H           3.7595    3.1135    0.0000 H       1  UNL1        0.0660
     40 H           3.1467    2.4864    0.0000 H       1  UNL1        0.0660
     41 H           6.7203    2.4990    0.0000 H       1  UNL1        0.0660
     42 H           6.9440    3.3468    0.0000 H       1  UNL1        0.0660
     43 H           6.0962    3.5705    0.0000 H       1  UNL1        0.0660
@<TRIPOS>BOND
     1     1    13    1
     2     1    21    1
     3     2    16    1
     4     2    22    1
     5     3     4    1
     6     3     8    1
     7     3    15    1
     8     4     5    1
     9     4     6    1
    10     4    23    1
    11     5     7   ar
    12     5     9   ar
    13     6    11    1
    14     6    24    1
    15     6    25    1
    16     7    10    1
    17     7    14   ar
    18     8    10    1
    19     8    26    1
    20     8    27    1
    21     9    12    1
    22     9    13   ar
    23    10    28    1
    24    10    29    1
    25    11    12   ar
    26    11    17   ar
    27    12    18   ar
    28    13    16   ar
    29    14    16   ar
    30    14    30    1
    31    15    31    1
    32    15    32    1
    33    15    33    1
    34    17    19   ar
    35    17    34    1
    36    18    20   ar
    37    18    35    1
    38    19    20   ar
    39    19    36    1
    40    20    37    1
    41    21    38    1
    42    21    39    1
    43    21    40    1
    44    22    41    1
    45    22    42    1
    46    22    43    1
