@<TRIPOS>MOLECULE
IMPHY013693
 154 163 0 0 0
SMALL
GASTEIGER

@<TRIPOS>ATOM
      1 O           5.9348    6.0666    0.0000 O.3     1  UNL1       -0.3476
      2 O           6.7788    7.6114    0.0000 O.3     1  UNL1       -0.3409
      3 O           9.5748    6.5759    0.0000 O.3     1  UNL1       -0.3883
      4 O           7.7331   -1.3258    0.0000 O.3     1  UNL1       -0.3449
      5 O           6.0010   -1.3259    0.0000 O.3     1  UNL1       -0.3461
      6 O           7.7331   -3.3259    0.0000 O.3     1  UNL1       -0.3378
      7 O           6.0010   -4.3258    0.0000 O.3     1  UNL1       -0.3400
      8 O           4.2690   -3.3259    0.0000 O.3     1  UNL1       -0.3868
      9 O           8.5991   -1.8258    0.0000 O.3     1  UNL1       -0.3461
     10 O           4.2690   -4.3258    0.0000 O.3     1  UNL1       -0.3405
     11 O           9.4651   -4.3258    0.0000 O.3     1  UNL1       -0.3841
     12 O           6.0010   -6.3258    0.0000 O.3     1  UNL1       -0.3378
     13 O          11.1972   -3.3258    0.0000 O.3     1  UNL1       -0.3864
     14 O          11.1972   -1.3258    0.0000 O.3     1  UNL1       -0.3869
     15 O           4.2690   -7.3258    0.0000 O.3     1  UNL1       -0.3864
     16 O           2.5369   -6.3258    0.0000 O.3     1  UNL1       -0.3865
     17 O           2.5369   -3.3259    0.0000 O.3     1  UNL1       -0.3924
     18 O           5.1350   -7.8258    0.0000 O.3     1  UNL1       -0.3461
     19 O           7.7331   -7.3258    0.0000 O.3     1  UNL1       -0.3841
     20 O           7.7331   -9.3259    0.0000 O.3     1  UNL1       -0.3864
     21 O           6.0010  -10.3259    0.0000 O.3     1  UNL1       -0.3869
     22 C           6.8066    4.5700    0.0000 C.3     1  UNL1        0.0081
     23 C           6.7945    3.5284    0.0000 C.3     1  UNL1       -0.0206
     24 C           7.6706    5.0733    0.0000 C.3     1  UNL1       -0.0223
     25 C           7.6946    3.0041    0.0000 C.3     1  UNL1       -0.0294
     26 C           7.6668    6.0733    0.0000 C.3     1  UNL1        0.0452
     27 C           6.7988    6.5700    0.0000 C.3     1  UNL1        0.1770
     28 C           7.1687    5.5714    0.0000 C.3     1  UNL1        0.0103
     29 C           7.7071    1.9192    0.0000 C.3     1  UNL1       -0.0252
     30 C           5.9386    5.0666    0.0000 C.3     1  UNL1        0.0575
     31 C           8.5826    4.5700    0.0000 C.3     1  UNL1       -0.0488
     32 C           5.8446    3.0041    0.0000 C.3     1  UNL1       -0.0465
     33 C           6.7696    1.3731    0.0000 C.3     1  UNL1       -0.0278
     34 C           8.5946    3.5284    0.0000 C.3     1  UNL1       -0.0489
     35 C           8.5748    6.5836    0.0000 C.3     1  UNL1        0.0739
     36 C           5.8321    1.9192    0.0000 C.3     1  UNL1       -0.0486
     37 C           5.9304    4.0317    0.0000 C.3     1  UNL1       -0.0587
     38 C           6.7565    0.2430    0.0000 C.3     1  UNL1       -0.0052
     39 C           8.6966    1.3731    0.0000 C.3     1  UNL1       -0.0447
     40 C           8.5712    2.4225    0.0000 C.3     1  UNL1       -0.0590
     41 C           8.5788    7.6253    0.0000 C.3     1  UNL1        0.0063
     42 C           7.7331   -0.3259    0.0000 C.3     1  UNL1        0.0672
     43 C           8.7096    0.2430    0.0000 C.3     1  UNL1       -0.0255
     44 C           7.6748    8.1426    0.0000 C.3     1  UNL1        0.0829
     45 C           9.0681    5.7138    0.0000 C.3     1  UNL1       -0.0355
     46 C           5.7566    0.2507    0.0000 C.3     1  UNL1       -0.0572
     47 C           6.2499   -0.6192    0.0000 C.3     1  UNL1       -0.0572
     48 C           7.6671    9.1426    0.0000 C.2     1  UNL1       -0.0567
     49 C           6.8671   -1.8258    0.0000 C.3     1  UNL1        0.1882
     50 C           6.7972    9.6359    0.0000 C.2     1  UNL1       -0.0772
     51 C           6.8671   -2.8259    0.0000 C.3     1  UNL1        0.1410
     52 C           6.7895   10.6359    0.0000 C.3     1  UNL1       -0.0440
     53 C           5.9351    9.1292    0.0000 C.3     1  UNL1       -0.0440
     54 C           6.0010   -3.3259    0.0000 C.3     1  UNL1        0.1206
     55 C           5.1350   -1.8259    0.0000 C.3     1  UNL1        0.0792
     56 C           5.1350   -2.8259    0.0000 C.3     1  UNL1        0.1073
     57 C           8.5991   -2.8259    0.0000 C.3     1  UNL1        0.1881
     58 C           5.1350   -4.8258    0.0000 C.3     1  UNL1        0.1888
     59 C           9.4651   -3.3259    0.0000 C.3     1  UNL1        0.1341
     60 C           5.1350   -5.8258    0.0000 C.3     1  UNL1        0.1406
     61 C          10.3312   -2.8259    0.0000 C.3     1  UNL1        0.1137
     62 C           9.4651   -1.3258    0.0000 C.3     1  UNL1        0.0792
     63 C          10.3312   -1.8258    0.0000 C.3     1  UNL1        0.1069
     64 C           4.2690   -6.3258    0.0000 C.3     1  UNL1        0.1144
     65 C           3.4030   -4.8258    0.0000 C.3     1  UNL1        0.1130
     66 C           3.4030   -5.8258    0.0000 C.3     1  UNL1        0.1119
     67 C           2.5369   -4.3258    0.0000 C.3     1  UNL1        0.0730
     68 C           6.0010   -7.3258    0.0000 C.3     1  UNL1        0.1881
     69 C           6.8671   -7.8258    0.0000 C.3     1  UNL1        0.1341
     70 C           6.8671   -8.8259    0.0000 C.3     1  UNL1        0.1137
     71 C           5.1350   -8.8259    0.0000 C.3     1  UNL1        0.0792
     72 C           6.0010   -9.3259    0.0000 C.3     1  UNL1        0.1069
     73 H           8.2040    5.3895    0.0000 H       1  UNL1        0.0312
     74 H           8.2339    2.6983    0.0000 H       1  UNL1        0.0312
     75 H           8.2025    5.7612    0.0000 H       1  UNL1        0.0384
     76 H           7.6672    5.2028    0.0000 H       1  UNL1        0.0323
     77 H           7.6644    5.9438    0.0000 H       1  UNL1        0.0323
     78 H           5.3276    5.1719    0.0000 H       1  UNL1        0.0567
     79 H           5.7288    4.4832    0.0000 H       1  UNL1        0.0567
     80 H           9.1946    4.4710    0.0000 H       1  UNL1        0.0268
     81 H           8.7849    5.1560    0.0000 H       1  UNL1        0.0268
     82 H           5.6423    3.5902    0.0000 H       1  UNL1        0.0271
     83 H           5.2326    2.9051    0.0000 H       1  UNL1        0.0271
     84 H           6.2303    1.0672    0.0000 H       1  UNL1        0.0312
     85 H           8.8104    2.9472    0.0000 H       1  UNL1        0.0268
     86 H           9.2042    3.6416    0.0000 H       1  UNL1        0.0268
     87 H           5.2225    2.0324    0.0000 H       1  UNL1        0.0268
     88 H           5.6163    1.3380    0.0000 H       1  UNL1        0.0268
     89 H           6.2425    4.5675    0.0000 H       1  UNL1        0.0235
     90 H           5.3947    4.3438    0.0000 H       1  UNL1        0.0235
     91 H           5.6184    3.4960    0.0000 H       1  UNL1        0.0235
     92 H           9.3086    1.2741    0.0000 H       1  UNL1        0.0271
     93 H           8.8989    1.9592    0.0000 H       1  UNL1        0.0271
     94 H           8.8833    1.8868    0.0000 H       1  UNL1        0.0235
     95 H           9.1070    2.7346    0.0000 H       1  UNL1        0.0235
     96 H           8.2592    2.9583    0.0000 H       1  UNL1        0.0235
     97 H           9.1893    7.5168    0.0000 H       1  UNL1        0.0321
     98 H           8.7902    8.2082    0.0000 H       1  UNL1        0.0321
     99 H           7.1956   -0.6348    0.0000 H       1  UNL1        0.0602
    100 H           8.9254   -0.3382    0.0000 H       1  UNL1        0.0290
    101 H           9.3192    0.3561    0.0000 H       1  UNL1        0.0290
    102 H           7.1349    8.4474    0.0000 H       1  UNL1        0.0642
    103 H           8.5288    5.4079    0.0000 H       1  UNL1        0.0257
    104 H           9.3740    5.1745    0.0000 H       1  UNL1        0.0257
    105 H           9.6075    6.0196    0.0000 H       1  UNL1        0.0257
    106 H           5.7613    0.8707    0.0000 H       1  UNL1        0.0236
    107 H           5.1366    0.2555    0.0000 H       1  UNL1        0.0236
    108 H           5.7518   -0.3693    0.0000 H       1  UNL1        0.0236
    109 H           5.7153   -0.3050    0.0000 H       1  UNL1        0.0236
    110 H           5.9357   -1.1537    0.0000 H       1  UNL1        0.0236
    111 H           6.7844   -0.9333    0.0000 H       1  UNL1        0.0236
    112 H           9.8889    7.1105    0.0000 H       1  UNL1        0.2102
    113 H           8.2016    9.4567    0.0000 H       1  UNL1        0.0597
    114 H           7.4040   -2.1358    0.0000 H       1  UNL1        0.0937
    115 H           6.8671   -3.4458    0.0000 H       1  UNL1        0.0675
    116 H           7.4095   10.6406    0.0000 H       1  UNL1        0.0274
    117 H           6.7847   11.2558    0.0000 H       1  UNL1        0.0274
    118 H           6.1695   10.6311    0.0000 H       1  UNL1        0.0274
    119 H           5.6209    9.6638    0.0000 H       1  UNL1        0.0274
    120 H           5.4005    8.8151    0.0000 H       1  UNL1        0.0274
    121 H           6.2492    8.5947    0.0000 H       1  UNL1        0.0274
    122 H           5.4641   -3.6358    0.0000 H       1  UNL1        0.0651
    123 H           4.9230   -1.2432    0.0000 H       1  UNL1        0.0587
    124 H           4.5244   -1.9335    0.0000 H       1  UNL1        0.0587
    125 H           4.5981   -2.5159    0.0000 H       1  UNL1        0.0643
    126 H           8.0622   -2.5159    0.0000 H       1  UNL1        0.0937
    127 H           3.7320   -3.0159    0.0000 H       1  UNL1        0.2100
    128 H           5.1350   -4.2058    0.0000 H       1  UNL1        0.0938
    129 H          10.0021   -3.6358    0.0000 H       1  UNL1        0.0671
    130 H           5.1350   -6.4458    0.0000 H       1  UNL1        0.0675
    131 H          10.8681   -2.5158    0.0000 H       1  UNL1        0.0647
    132 H           9.8637   -0.8509    0.0000 H       1  UNL1        0.0587
    133 H           9.0666   -0.8509    0.0000 H       1  UNL1        0.0587
    134 H          10.3312   -1.2058    0.0000 H       1  UNL1        0.0643
    135 H           3.7320   -6.6358    0.0000 H       1  UNL1        0.0648
    136 H          10.0021   -4.6358    0.0000 H       1  UNL1        0.2101
    137 H           3.4030   -4.2058    0.0000 H       1  UNL1        0.0647
    138 H           3.4030   -6.4458    0.0000 H       1  UNL1        0.0647
    139 H          11.7341   -3.0158    0.0000 H       1  UNL1        0.2100
    140 H           1.9264   -4.2182    0.0000 H       1  UNL1        0.0584
    141 H           2.3249   -4.9085    0.0000 H       1  UNL1        0.0584
    142 H          11.1972   -0.7059    0.0000 H       1  UNL1        0.2100
    143 H           6.5380   -7.0158    0.0000 H       1  UNL1        0.0937
    144 H           3.7320   -7.6359    0.0000 H       1  UNL1        0.2100
    145 H           2.0000   -6.0158    0.0000 H       1  UNL1        0.2100
    146 H           7.4040   -8.1358    0.0000 H       1  UNL1        0.0671
    147 H           2.0000   -3.0159    0.0000 H       1  UNL1        0.2095
    148 H           6.8671   -9.4459    0.0000 H       1  UNL1        0.0647
    149 H           4.5244   -8.7182    0.0000 H       1  UNL1        0.0587
    150 H           4.9230   -9.4085    0.0000 H       1  UNL1        0.0587
    151 H           5.4641   -9.6359    0.0000 H       1  UNL1        0.0643
    152 H           8.2700   -7.6359    0.0000 H       1  UNL1        0.2101
    153 H           7.7331   -9.9459    0.0000 H       1  UNL1        0.2100
    154 H           5.4641  -10.6359    0.0000 H       1  UNL1        0.2100
@<TRIPOS>BOND
     1     1    27    1
     2     1    30    1
     3     2    27    1
     4     2    44    1
     5     3    35    1
     6     3   112    1
     7     4    42    1
     8     4    49    1
     9     5    49    1
    10     5    55    1
    11     6    51    1
    12     6    57    1
    13     7    54    1
    14     7    58    1
    15     8    56    1
    16     8   127    1
    17     9    57    1
    18     9    62    1
    19    10    58    1
    20    10    65    1
    21    11    59    1
    22    11   136    1
    23    12    60    1
    24    12    68    1
    25    13    61    1
    26    13   139    1
    27    14    63    1
    28    14   142    1
    29    15    64    1
    30    15   144    1
    31    16    66    1
    32    16   145    1
    33    17    67    1
    34    17   147    1
    35    18    68    1
    36    18    71    1
    37    19    69    1
    38    19   152    1
    39    20    70    1
    40    20   153    1
    41    21    72    1
    42    21   154    1
    43    22    23    1
    44    22    24    1
    45    22    28    1
    46    22    30    1
    47    23    25    1
    48    23    32    1
    49    23    37    1
    50    24    26    1
    51    24    31    1
    52    24    73    1
    53    25    29    1
    54    25    34    1
    55    25    74    1
    56    26    27    1
    57    26    35    1
    58    26    75    1
    59    27    28    1
    60    28    76    1
    61    28    77    1
    62    29    33    1
    63    29    39    1
    64    29    40    1
    65    30    78    1
    66    30    79    1
    67    31    34    1
    68    31    80    1
    69    31    81    1
    70    32    36    1
    71    32    82    1
    72    32    83    1
    73    33    36    1
    74    33    38    1
    75    33    84    1
    76    34    85    1
    77    34    86    1
    78    35    41    1
    79    35    45    1
    80    36    87    1
    81    36    88    1
    82    37    89    1
    83    37    90    1
    84    37    91    1
    85    38    42    1
    86    38    46    1
    87    38    47    1
    88    39    43    1
    89    39    92    1
    90    39    93    1
    91    40    94    1
    92    40    95    1
    93    40    96    1
    94    41    44    1
    95    41    97    1
    96    41    98    1
    97    42    43    1
    98    42    99    1
    99    43   100    1
   100    43   101    1
   101    44    48    1
   102    44   102    1
   103    45   103    1
   104    45   104    1
   105    45   105    1
   106    46   106    1
   107    46   107    1
   108    46   108    1
   109    47   109    1
   110    47   110    1
   111    47   111    1
   112    48    50    2
   113    48   113    1
   114    49    51    1
   115    49   114    1
   116    50    52    1
   117    50    53    1
   118    51    54    1
   119    51   115    1
   120    52   116    1
   121    52   117    1
   122    52   118    1
   123    53   119    1
   124    53   120    1
   125    53   121    1
   126    54    56    1
   127    54   122    1
   128    55    56    1
   129    55   123    1
   130    55   124    1
   131    56   125    1
   132    57    59    1
   133    57   126    1
   134    58    60    1
   135    58   128    1
   136    59    61    1
   137    59   129    1
   138    60    64    1
   139    60   130    1
   140    61    63    1
   141    61   131    1
   142    62    63    1
   143    62   132    1
   144    62   133    1
   145    63   134    1
   146    64    66    1
   147    64   135    1
   148    65    66    1
   149    65    67    1
   150    65   137    1
   151    66   138    1
   152    67   140    1
   153    67   141    1
   154    68    69    1
   155    68   143    1
   156    69    70    1
   157    69   146    1
   158    70    72    1
   159    70   148    1
   160    71    72    1
   161    71   149    1
   162    71   150    1
   163    72   151    1
