@<TRIPOS>MOLECULE
IMPHY014684
 39 42 0 0 0
SMALL
GASTEIGER

@<TRIPOS>ATOM
      1 O           2.7976   -2.5210    0.0000 O.3     1  UNL1       -0.3917
      2 O           8.4964   -0.4354    0.0000 O.2     1  UNL1       -0.2677
      3 N           3.0238    0.5399    0.0000 N.3     1  UNL1       -0.2983
      4 N           7.1227    0.6811    0.0000 N.ar    1  UNL1       -0.3117
      5 C           5.0739    0.8464    0.0000 C.3     1  UNL1       -0.0066
      6 C           3.8528   -0.0193    0.0000 C.3     1  UNL1        0.0172
      7 C           5.3327    1.8123    0.0000 C.3     1  UNL1        0.0127
      8 C           4.5961    2.7949    0.0000 C.3     1  UNL1       -0.0378
      9 C           3.2994    1.5012    0.0000 C.3     1  UNL1        0.0074
     10 C           3.7962   -1.0594    0.0000 C.3     1  UNL1       -0.0108
     11 C           6.3456    0.0518    0.0000 C.3     1  UNL1        0.0306
     12 C           2.0807    0.0978    0.0000 C.3     1  UNL1        0.0015
     13 C           6.7643    1.6147    0.0000 C.ar    1  UNL1        0.0263
     14 C           2.8636   -1.5232    0.0000 C.3     1  UNL1        0.0578
     15 C           2.0000   -0.9407    0.0000 C.3     1  UNL1       -0.0140
     16 C           7.4073    2.4342    0.0000 C.ar    1  UNL1       -0.0418
     17 C           8.1489    0.5023    0.0000 C.ar    1  UNL1        0.2515
     18 C           8.4373    2.2792    0.0000 C.ar    1  UNL1       -0.0550
     19 C           8.8106    1.3067    0.0000 C.ar    1  UNL1        0.0030
     20 H           5.5762    1.2099    0.0000 H       1  UNL1        0.0333
     21 H           4.3957   -0.3188    0.0000 H       1  UNL1        0.0467
     22 H           5.3372    1.1923    0.0000 H       1  UNL1        0.0376
     23 H           4.9139    3.3273    0.0000 H       1  UNL1        0.0276
     24 H           3.9829    2.8869    0.0000 H       1  UNL1        0.0276
     25 H           3.2944    2.1212    0.0000 H       1  UNL1        0.0433
     26 H           2.6851    1.5850    0.0000 H       1  UNL1        0.0433
     27 H           3.9732   -1.6536    0.0000 H       1  UNL1        0.0305
     28 H           4.4119   -0.9866    0.0000 H       1  UNL1        0.0305
     29 H           5.9610   -0.4346    0.0000 H       1  UNL1        0.0496
     30 H           6.7865   -0.3841    0.0000 H       1  UNL1        0.0496
     31 H           1.9174    0.6959    0.0000 H       1  UNL1        0.0427
     32 H           1.4634    0.0393    0.0000 H       1  UNL1        0.0427
     33 H           3.3796   -1.8669    0.0000 H       1  UNL1        0.0594
     34 H           1.3992   -0.7876    0.0000 H       1  UNL1        0.0302
     35 H           1.7464   -1.5064    0.0000 H       1  UNL1        0.0302
     36 H           7.1784    3.0104    0.0000 H       1  UNL1        0.0635
     37 H           2.2414   -2.7949    0.0000 H       1  UNL1        0.2098
     38 H           8.8256    2.7625    0.0000 H       1  UNL1        0.0620
     39 H           9.4226    1.2074    0.0000 H       1  UNL1        0.0672
@<TRIPOS>BOND
     1     1    14    1
     2     1    37    1
     3     2    17    2
     4     3     6    1
     5     3     9    1
     6     3    12    1
     7     4    11    1
     8     4    13   ar
     9     4    17   ar
    10     5     6    1
    11     5     8    1
    12     5    11    1
    13     5    20    1
    14     6    10    1
    15     6    21    1
    16     7     8    1
    17     7     9    1
    18     7    13    1
    19     7    22    1
    20     8    23    1
    21     8    24    1
    22     9    25    1
    23     9    26    1
    24    10    14    1
    25    10    27    1
    26    10    28    1
    27    11    29    1
    28    11    30    1
    29    12    15    1
    30    12    31    1
    31    12    32    1
    32    13    16   ar
    33    14    15    1
    34    14    33    1
    35    15    34    1
    36    15    35    1
    37    16    18   ar
    38    16    36    1
    39    17    19   ar
    40    18    19   ar
    41    18    38    1
    42    19    39    1
