@<TRIPOS>MOLECULE
IMPHY001199
 43 45 0 0 0
SMALL
GASTEIGER

@<TRIPOS>ATOM
      1 O           5.3114   -0.5609    0.0000 O.3     1  UNL1       -0.3883
      2 O           7.4593    2.0422    0.0000 O.3     1  UNL1       -0.3912
      3 C           4.1484   -0.5808    0.0000 C.3     1  UNL1       -0.0083
      4 C           3.1636   -0.4071    0.0000 C.3     1  UNL1       -0.0304
      5 C           2.9844   -1.3994    0.0000 C.3     1  UNL1       -0.0314
      6 C           5.2242    0.4353    0.0000 C.3     1  UNL1        0.0699
      7 C           3.9774   -1.5744    0.0000 C.3     1  UNL1       -0.0419
      8 C           5.4830    1.4012    0.0000 C.3     1  UNL1       -0.0035
      9 C           4.7464    2.3838    0.0000 C.3     1  UNL1       -0.0160
     10 C           2.8216    0.5326    0.0000 C.3     1  UNL1       -0.0488
     11 C           3.4644    1.2986    0.0000 C.3     1  UNL1       -0.0449
     12 C           6.4959   -0.3594    0.0000 C.3     1  UNL1       -0.0214
     13 C           6.9147    1.2035    0.0000 C.3     1  UNL1        0.0608
     14 C           7.2730    0.2700    0.0000 C.3     1  UNL1       -0.0237
     15 C           2.8088   -2.3838    0.0000 C.3     1  UNL1       -0.0595
     16 C           2.0000   -1.2237    0.0000 C.3     1  UNL1       -0.0595
     17 C           5.7419    2.3671    0.0000 C.3     1  UNL1       -0.0571
     18 H           4.8846   -1.0058    0.0000 H       1  UNL1        0.0331
     19 H           2.3265   -0.2595    0.0000 H       1  UNL1        0.0310
     20 H           3.8706   -2.1852    0.0000 H       1  UNL1        0.0274
     21 H           4.5883   -1.6804    0.0000 H       1  UNL1        0.0274
     22 H           5.0642    2.9162    0.0000 H       1  UNL1        0.0299
     23 H           4.1333    2.4758    0.0000 H       1  UNL1        0.0299
     24 H           2.4231    1.0075    0.0000 H       1  UNL1        0.0268
     25 H           2.2847    0.2226    0.0000 H       1  UNL1        0.0268
     26 H           3.5869    1.9064    0.0000 H       1  UNL1        0.0271
     27 H           2.9057    1.5674    0.0000 H       1  UNL1        0.0271
     28 H           6.1114   -0.8457    0.0000 H       1  UNL1        0.0294
     29 H           6.9369   -0.7952    0.0000 H       1  UNL1        0.0294
     30 H           7.5313    1.1387    0.0000 H       1  UNL1        0.0599
     31 H           7.6107   -0.2500    0.0000 H       1  UNL1        0.0291
     32 H           7.8255    0.5514    0.0000 H       1  UNL1        0.0291
     33 H           2.1089   -0.6133    0.0000 H       1  UNL1        0.0235
     34 H           1.3896   -1.1148    0.0000 H       1  UNL1        0.0235
     35 H           2.1984   -2.2749    0.0000 H       1  UNL1        0.0235
     36 H           2.6999   -2.9942    0.0000 H       1  UNL1        0.0235
     37 H           1.8911   -1.8340    0.0000 H       1  UNL1        0.0235
     38 H           3.4191   -2.4927    0.0000 H       1  UNL1        0.0235
     39 H           6.3407    2.2067    0.0000 H       1  UNL1        0.0236
     40 H           5.9023    2.9660    0.0000 H       1  UNL1        0.0236
     41 H           5.1430    2.5276    0.0000 H       1  UNL1        0.0236
     42 H           5.8733   -0.8229    0.0000 H       1  UNL1        0.2102
     43 H           8.0785    2.0098    0.0000 H       1  UNL1        0.2098
@<TRIPOS>BOND
     1     6     1    1
     2     1    42    1
     3    13     2    1
     4     2    43    1
     5     3     4    1
     6     3     6    1
     7     3     7    1
     8     3    18    1
     9     4     5    1
    10     4    10    1
    11     4    19    1
    12     5     7    1
    13     5    15    1
    14     5    16    1
    15     6     9    1
    16     6    12    1
    17     7    20    1
    18     7    21    1
    19     8     9    1
    20     8    11    1
    21     8    13    1
    22     8    17    1
    23     9    22    1
    24     9    23    1
    25    10    11    1
    26    10    24    1
    27    10    25    1
    28    11    26    1
    29    11    27    1
    30    12    14    1
    31    12    28    1
    32    12    29    1
    33    13    14    1
    34    13    30    1
    35    14    31    1
    36    14    32    1
    37    15    35    1
    38    15    36    1
    39    15    38    1
    40    16    33    1
    41    16    34    1
    42    16    37    1
    43    17    39    1
    44    17    40    1
    45    17    41    1
