@<TRIPOS>MOLECULE
IMPHY012085
 32 31 0 0 0
SMALL
GASTEIGER

@<TRIPOS>ATOM
      1 O           7.1962    0.2500    0.0000 O.3     1  UNL1       -0.4644
      2 O           6.3301   -1.2500    0.0000 O.2     1  UNL1       -0.2509
      3 C           4.5981   -0.2500    0.0000 C.3     1  UNL1       -0.0430
      4 C           3.7320    0.2500    0.0000 C.3     1  UNL1       -0.0528
      5 C           8.9282    0.2500    0.0000 C.3     1  UNL1       -0.0123
      6 C           5.4641    0.2500    0.0000 C.3     1  UNL1        0.0449
      7 C           2.8660   -0.2500    0.0000 C.3     1  UNL1       -0.0559
      8 C           8.0622   -0.2500    0.0000 C.3     1  UNL1        0.0948
      9 C           9.7942   -0.2500    0.0000 C.3     1  UNL1       -0.0596
     10 C           8.9282    1.2500    0.0000 C.3     1  UNL1       -0.0596
     11 C           6.3301   -0.2500    0.0000 C.2     1  UNL1        0.3071
     12 C           2.0000    0.2500    0.0000 C.3     1  UNL1       -0.0653
     13 H           4.1996   -0.7249    0.0000 H       1  UNL1        0.0270
     14 H           4.9966   -0.7249    0.0000 H       1  UNL1        0.0270
     15 H           4.1306    0.7249    0.0000 H       1  UNL1        0.0265
     16 H           3.3335    0.7249    0.0000 H       1  UNL1        0.0265
     17 H           9.4651    0.5600    0.0000 H       1  UNL1        0.0328
     18 H           5.8626    0.7249    0.0000 H       1  UNL1        0.0377
     19 H           5.0656    0.7249    0.0000 H       1  UNL1        0.0377
     20 H           2.4675   -0.7249    0.0000 H       1  UNL1        0.0263
     21 H           3.2646   -0.7249    0.0000 H       1  UNL1        0.0263
     22 H           7.6636   -0.7249    0.0000 H       1  UNL1        0.0700
     23 H           8.4607   -0.7249    0.0000 H       1  UNL1        0.0700
     24 H           9.4842   -0.7869    0.0000 H       1  UNL1        0.0233
     25 H          10.3312   -0.5600    0.0000 H       1  UNL1        0.0233
     26 H          10.1042    0.2869    0.0000 H       1  UNL1        0.0233
     27 H           9.5482    1.2500    0.0000 H       1  UNL1        0.0233
     28 H           8.9282    1.8700    0.0000 H       1  UNL1        0.0233
     29 H           8.3082    1.2500    0.0000 H       1  UNL1        0.0233
     30 H           2.3100    0.7869    0.0000 H       1  UNL1        0.0230
     31 H           1.4631    0.5600    0.0000 H       1  UNL1        0.0230
     32 H           1.6900   -0.2869    0.0000 H       1  UNL1        0.0230
@<TRIPOS>BOND
     1     1     8    1
     2     1    11    1
     3     2    11    2
     4     3     4    1
     5     3     6    1
     6     3    13    1
     7     3    14    1
     8     4     7    1
     9     4    15    1
    10     4    16    1
    11     5     8    1
    12     5     9    1
    13     5    10    1
    14     5    17    1
    15     6    11    1
    16     6    18    1
    17     6    19    1
    18     7    12    1
    19     7    20    1
    20     7    21    1
    21     8    22    1
    22     8    23    1
    23     9    24    1
    24     9    25    1
    25     9    26    1
    26    10    27    1
    27    10    28    1
    28    10    29    1
    29    12    30    1
    30    12    31    1
    31    12    32    1
