@<TRIPOS>MOLECULE
IMPHY007817
 20 20 0 0 0
SMALL
GASTEIGER

@<TRIPOS>ATOM
      1 O           2.8660    2.1900    0.0000 O.2     1  UNL1       -0.2711
      2 N           4.5981    2.1900    0.0000 N.am    1  UNL1       -0.3258
      3 C           2.8660   -0.8100    0.0000 C.ar    1  UNL1       -0.0249
      4 C           2.0000   -1.3100    0.0000 C.ar    1  UNL1       -0.0546
      5 C           3.7320   -1.3100    0.0000 C.ar    1  UNL1       -0.0546
      6 C           2.8660    0.1900    0.0000 C.2     1  UNL1       -0.0497
      7 C           2.0000   -2.3100    0.0000 C.ar    1  UNL1       -0.0612
      8 C           3.7320   -2.3100    0.0000 C.ar    1  UNL1       -0.0612
      9 C           2.8660   -2.8100    0.0000 C.ar    1  UNL1       -0.0617
     10 C           3.7320    0.6900    0.0000 C.2     1  UNL1        0.0005
     11 C           3.7320    1.6900    0.0000 C.2     1  UNL1        0.2344
     12 H           1.4631   -1.0000    0.0000 H       1  UNL1        0.0623
     13 H           4.2690   -1.0000    0.0000 H       1  UNL1        0.0623
     14 H           2.3291    0.5000    0.0000 H       1  UNL1        0.0625
     15 H           1.4631   -2.6200    0.0000 H       1  UNL1        0.0618
     16 H           4.2690   -2.6200    0.0000 H       1  UNL1        0.0618
     17 H           2.8660   -3.4300    0.0000 H       1  UNL1        0.0618
     18 H           4.2690    0.3800    0.0000 H       1  UNL1        0.0669
     19 H           4.5981    2.8100    0.0000 H       1  UNL1        0.1452
     20 H           5.1350    1.8800    0.0000 H       1  UNL1        0.1452
@<TRIPOS>BOND
     1     1    11    2
     2     2    11   am
     3     2    19    1
     4     2    20    1
     5     3     4   ar
     6     3     5   ar
     7     3     6    1
     8     4     7   ar
     9     4    12    1
    10     5     8   ar
    11     5    13    1
    12     6    10    2
    13     6    14    1
    14     7     9   ar
    15     7    15    1
    16     8     9   ar
    17     8    16    1
    18     9    17    1
    19    10    11    1
    20    10    18    1
