@<TRIPOS>MOLECULE
IMPHY009670
 65 69 0 0 0
SMALL
GASTEIGER

@<TRIPOS>ATOM
      1 O           5.6690   -2.3845    0.0000 O.3     1  UNL1       -0.3674
      2 O           4.4206   -2.5531    0.0000 O.3     1  UNL1       -0.4607
      3 O           2.9258    1.5039    0.0000 O.3     1  UNL1       -0.3372
      4 O           6.1690   -2.5185    0.0000 O.3     1  UNL1       -0.4640
      5 O           2.0000    3.1600    0.0000 O.2     1  UNL1       -0.4708
      6 O           2.6887   -2.5731    0.0000 O.2     1  UNL1       -0.2512
      7 O           5.3030   -4.0185    0.0000 O.2     1  UNL1       -0.2512
      8 C           5.3030   -1.0185    0.0000 C.3     1  UNL1        0.0762
      9 C           5.3030   -0.0185    0.0000 C.3     1  UNL1       -0.0181
     10 C           6.1690   -1.5185    0.0000 C.3     1  UNL1        0.1052
     11 C           4.4090    0.5162    0.0000 C.3     1  UNL1        0.0006
     12 C           4.4090   -1.5532    0.0000 C.3     1  UNL1        0.1150
     13 C           3.5030    0.0023    0.0000 C.3     1  UNL1       -0.0325
     14 C           6.1690    0.4815    0.0000 C.3     1  UNL1       -0.0487
     15 C           7.0350   -1.0185    0.0000 C.3     1  UNL1       -0.0208
     16 C           6.6690   -2.3845    0.0000 C.3     1  UNL1        0.0783
     17 C           3.5030   -1.0393    0.0000 C.3     1  UNL1       -0.0117
     18 C           3.9191    1.3879    0.0000 C.3     1  UNL1        0.0693
     19 C           7.0350   -0.0185    0.0000 C.3     1  UNL1       -0.0501
     20 C           5.3030   -2.0185    0.0000 C.3     1  UNL1        0.1044
     21 C           4.9190    1.3763    0.0000 C.3     1  UNL1       -0.0567
     22 C           4.3364    2.2967    0.0000 C.3     1  UNL1       -0.0138
     23 C           2.6389    0.5056    0.0000 C.3     1  UNL1       -0.0617
     24 C           3.6010    2.9744    0.0000 C.3     1  UNL1        0.0451
     25 C           2.7292    2.4844    0.0000 C.3     1  UNL1        0.2075
     26 C           3.4030    3.9485    0.0000 C.2     1  UNL1       -0.0405
     27 C           3.5604   -3.0631    0.0000 C.2     1  UNL1        0.3042
     28 C           2.4156    4.0630    0.0000 C.2     1  UNL1        0.0844
     29 C           6.1690   -3.5185    0.0000 C.2     1  UNL1        0.3040
     30 C           3.5720   -4.0630    0.0000 C.3     1  UNL1        0.0332
     31 C           7.0350   -4.0185    0.0000 C.3     1  UNL1        0.0332
     32 H           5.3095    0.8315    0.0000 H       1  UNL1        0.0315
     33 H           3.8751   -1.8683    0.0000 H       1  UNL1        0.0742
     34 H           3.5066    0.6223    0.0000 H       1  UNL1        0.0305
     35 H           6.5675    0.9564    0.0000 H       1  UNL1        0.0268
     36 H           5.7705    0.9564    0.0000 H       1  UNL1        0.0268
     37 H           7.2471   -1.6011    0.0000 H       1  UNL1        0.0294
     38 H           7.6456   -0.9108    0.0000 H       1  UNL1        0.0294
     39 H           6.7767   -2.9951    0.0000 H       1  UNL1        0.0589
     40 H           7.2516   -2.1725    0.0000 H       1  UNL1        0.0589
     41 H           2.8921   -0.9332    0.0000 H       1  UNL1        0.0304
     42 H           3.2939   -1.6230    0.0000 H       1  UNL1        0.0304
     43 H           3.4479    0.6804    0.0000 H       1  UNL1        0.0603
     44 H           7.6456   -0.1262    0.0000 H       1  UNL1        0.0266
     45 H           7.2471    0.5641    0.0000 H       1  UNL1        0.0266
     46 H           4.6924   -1.9108    0.0000 H       1  UNL1        0.0705
     47 H           5.0909   -2.6011    0.0000 H       1  UNL1        0.0705
     48 H           5.4523    1.0602    0.0000 H       1  UNL1        0.0236
     49 H           5.2352    1.9097    0.0000 H       1  UNL1        0.0236
     50 H           4.3857    1.6925    0.0000 H       1  UNL1        0.0236
     51 H           4.8697    1.9805    0.0000 H       1  UNL1        0.0298
     52 H           4.7066    2.7940    0.0000 H       1  UNL1        0.0298
     53 H           2.9510    1.0414    0.0000 H       1  UNL1        0.0233
     54 H           2.1031    0.8177    0.0000 H       1  UNL1        0.0233
     55 H           2.3268   -0.0301    0.0000 H       1  UNL1        0.0233
     56 H           4.3414    3.3918    0.0000 H       1  UNL1        0.0405
     57 H           1.9877    2.0689    0.0000 H       1  UNL1        0.1061
     58 H           3.8224    4.4052    0.0000 H       1  UNL1        0.0607
     59 H           2.1118    4.6035    0.0000 H       1  UNL1        0.1021
     60 H           2.9520   -4.0702    0.0000 H       1  UNL1        0.0342
     61 H           3.5792   -4.6830    0.0000 H       1  UNL1        0.0342
     62 H           4.1919   -4.0559    0.0000 H       1  UNL1        0.0342
     63 H           6.7250   -4.5554    0.0000 H       1  UNL1        0.0342
     64 H           7.5720   -4.3285    0.0000 H       1  UNL1        0.0342
     65 H           7.3450   -3.4816    0.0000 H       1  UNL1        0.0342
@<TRIPOS>BOND
     1    10     1    1
     2     1    16    1
     3    12     2    1
     4     2    27    1
     5     3    18    1
     6     3    25    1
     7     4    20    1
     8     4    29    1
     9     5    25    1
    10     5    28    1
    11     6    27    2
    12     7    29    2
    13     8     9    1
    14     8    10    1
    15     8    12    1
    16     8    20    1
    17     9    11    1
    18     9    14    1
    19     9    32    1
    20    10    15    1
    21    10    16    1
    22    11    13    1
    23    11    18    1
    24    11    21    1
    25    12    17    1
    26    12    33    1
    27    13    17    1
    28    13    23    1
    29    13    34    1
    30    14    19    1
    31    14    35    1
    32    14    36    1
    33    15    19    1
    34    15    37    1
    35    15    38    1
    36    16    39    1
    37    16    40    1
    38    17    41    1
    39    17    42    1
    40    18    22    1
    41    18    43    1
    42    19    44    1
    43    19    45    1
    44    20    46    1
    45    20    47    1
    46    21    48    1
    47    21    49    1
    48    21    50    1
    49    22    24    1
    50    22    51    1
    51    22    52    1
    52    23    53    1
    53    23    54    1
    54    23    55    1
    55    24    25    1
    56    24    26    1
    57    24    56    1
    58    25    57    1
    59    26    28    2
    60    26    58    1
    61    27    30    1
    62    28    59    1
    63    29    31    1
    64    30    60    1
    65    30    61    1
    66    30    62    1
    67    31    63    1
    68    31    64    1
    69    31    65    1
