@<TRIPOS>MOLECULE
IMPHY016487
 26 25 0 0 0
SMALL
GASTEIGER

@<TRIPOS>ATOM
      1 O           8.9282    0.7500    0.0000 O.3     1  UNL1       -0.3950
      2 O           2.8660   -0.7500    0.0000 O.2     1  UNL1       -0.2977
      3 C           5.4641    0.7500    0.0000 C.3     1  UNL1       -0.0526
      4 C           6.3301    0.2500    0.0000 C.3     1  UNL1       -0.0510
      5 C           4.5981    0.2500    0.0000 C.3     1  UNL1       -0.0464
      6 C           7.1962    0.7500    0.0000 C.3     1  UNL1       -0.0297
      7 C           3.7320    0.7500    0.0000 C.3     1  UNL1        0.0055
      8 C           8.0622    0.2500    0.0000 C.3     1  UNL1        0.0442
      9 C           2.8660    0.2500    0.0000 C.2     1  UNL1        0.1303
     10 C           2.0000    0.7500    0.0000 C.3     1  UNL1       -0.0061
     11 H           5.8626    1.2250    0.0000 H       1  UNL1        0.0265
     12 H           5.0656    1.2250    0.0000 H       1  UNL1        0.0265
     13 H           5.9316   -0.2249    0.0000 H       1  UNL1        0.0266
     14 H           6.7287   -0.2249    0.0000 H       1  UNL1        0.0266
     15 H           4.1996   -0.2249    0.0000 H       1  UNL1        0.0269
     16 H           4.9966   -0.2249    0.0000 H       1  UNL1        0.0269
     17 H           7.5947    1.2250    0.0000 H       1  UNL1        0.0287
     18 H           6.7976    1.2250    0.0000 H       1  UNL1        0.0287
     19 H           4.1306    1.2250    0.0000 H       1  UNL1        0.0341
     20 H           3.3335    1.2250    0.0000 H       1  UNL1        0.0341
     21 H           7.6636   -0.2249    0.0000 H       1  UNL1        0.0557
     22 H           8.4607   -0.2249    0.0000 H       1  UNL1        0.0557
     23 H           2.3100    1.2869    0.0000 H       1  UNL1        0.0306
     24 H           1.4631    1.0600    0.0000 H       1  UNL1        0.0306
     25 H           1.6900    0.2131    0.0000 H       1  UNL1        0.0306
     26 H           9.4651    0.4400    0.0000 H       1  UNL1        0.2094
@<TRIPOS>BOND
     1     1     8    1
     2     1    26    1
     3     2     9    2
     4     3     4    1
     5     3     5    1
     6     3    11    1
     7     3    12    1
     8     4     6    1
     9     4    13    1
    10     4    14    1
    11     5     7    1
    12     5    15    1
    13     5    16    1
    14     6     8    1
    15     6    17    1
    16     6    18    1
    17     7     9    1
    18     7    19    1
    19     7    20    1
    20     8    21    1
    21     8    22    1
    22     9    10    1
    23    10    23    1
    24    10    24    1
    25    10    25    1
