@<TRIPOS>MOLECULE
IMPHY014243
 30 32 0 0 0
SMALL
GASTEIGER

@<TRIPOS>ATOM
      1 O           5.5301   -2.0000    0.0000 O.2     1  UNL1       -0.2865
      2 O           5.5301    2.0000    0.0000 O.2     1  UNL1       -0.2865
      3 O           7.2785   -2.0346    0.0000 O.3     1  UNL1       -0.5060
      4 O           7.2785    2.0346    0.0000 O.3     1  UNL1       -0.5060
      5 O           2.0000    1.0241    0.0000 O.3     1  UNL1       -0.5065
      6 C           4.6641   -0.5000    0.0000 C.ar    1  UNL1        0.0337
      7 C           4.6641    0.5000    0.0000 C.ar    1  UNL1        0.0367
      8 C           6.3961   -0.5000    0.0000 C.ar    1  UNL1        0.0779
      9 C           6.3961    0.5000    0.0000 C.ar    1  UNL1        0.0779
     10 C           5.5301   -1.0000    0.0000 C.2     1  UNL1        0.1981
     11 C           5.5301    1.0000    0.0000 C.2     1  UNL1        0.1982
     12 C           3.7702   -1.0347    0.0000 C.ar    1  UNL1       -0.0439
     13 C           3.7702    1.0347    0.0000 C.ar    1  UNL1       -0.0084
     14 C           2.8641   -0.5208    0.0000 C.ar    1  UNL1       -0.0083
     15 C           7.2901   -1.0347    0.0000 C.ar    1  UNL1        0.1286
     16 C           7.2901    1.0347    0.0000 C.ar    1  UNL1        0.1286
     17 C           2.8641    0.5208    0.0000 C.ar    1  UNL1        0.1205
     18 C           8.1962   -0.5208    0.0000 C.ar    1  UNL1       -0.0160
     19 C           8.1962    0.5208    0.0000 C.ar    1  UNL1       -0.0160
     20 C           2.0000   -1.0241    0.0000 C.3     1  UNL1       -0.0362
     21 H           3.7773   -1.6546    0.0000 H       1  UNL1        0.0629
     22 H           3.7773    1.6546    0.0000 H       1  UNL1        0.0661
     23 H           8.7319   -0.8329    0.0000 H       1  UNL1        0.0655
     24 H           8.7319    0.8329    0.0000 H       1  UNL1        0.0655
     25 H           1.6879   -0.4884    0.0000 H       1  UNL1        0.0279
     26 H           1.4643   -1.3362    0.0000 H       1  UNL1        0.0279
     27 H           2.3121   -1.5599    0.0000 H       1  UNL1        0.0279
     28 H           7.8118   -2.3508    0.0000 H       1  UNL1        0.2922
     29 H           7.8118    2.3508    0.0000 H       1  UNL1        0.2922
     30 H           2.0024    1.6442    0.0000 H       1  UNL1        0.2921
@<TRIPOS>BOND
     1     1    10    2
     2     2    11    2
     3     3    15    1
     4     3    28    1
     5     4    16    1
     6     4    29    1
     7     5    17    1
     8     5    30    1
     9     6     7   ar
    10     6    10    1
    11     6    12   ar
    12     7    11    1
    13     7    13   ar
    14     8     9   ar
    15     8    10    1
    16     8    15   ar
    17     9    11    1
    18     9    16   ar
    19    12    14   ar
    20    12    21    1
    21    13    17   ar
    22    13    22    1
    23    14    17   ar
    24    14    20    1
    25    15    18   ar
    26    16    19   ar
    27    18    19   ar
    28    18    23    1
    29    19    24    1
    30    20    25    1
    31    20    26    1
    32    20    27    1
