@<TRIPOS>MOLECULE
IMPHY008486
 40 42 0 0 0
SMALL
GASTEIGER

@<TRIPOS>ATOM
      1 O           5.5443   -0.5479    0.0000 O.3     1  UNL1       -0.4832
      2 O           2.0000   -0.7431    0.0000 O.3     1  UNL1       -0.4913
      3 O           2.0000    1.2569    0.0000 O.3     1  UNL1       -0.5033
      4 O           9.1279   -1.4752    0.0000 O.3     1  UNL1       -0.5033
      5 O          10.1279    0.2569    0.0000 O.3     1  UNL1       -0.4915
      6 C           5.5443    1.0616    0.0000 C.3     1  UNL1        0.0261
      7 C           6.1279    0.2569    0.0000 C.3     1  UNL1        0.1319
      8 C           4.5981    0.7569    0.0000 C.ar    1  UNL1        0.0046
      9 C           4.5981   -0.2431    0.0000 C.ar    1  UNL1        0.1287
     10 C           7.1279    0.2569    0.0000 C.ar    1  UNL1       -0.0031
     11 C           5.8550    2.0121    0.0000 C.3     1  UNL1       -0.0546
     12 C           3.7320    1.2569    0.0000 C.ar    1  UNL1       -0.0095
     13 C           3.7320   -0.7431    0.0000 C.ar    1  UNL1        0.0257
     14 C           7.6279   -0.6092    0.0000 C.ar    1  UNL1       -0.0098
     15 C           7.6279    1.1229    0.0000 C.ar    1  UNL1       -0.0514
     16 C           2.8660    0.7569    0.0000 C.ar    1  UNL1        0.1589
     17 C           2.8660   -0.2431    0.0000 C.ar    1  UNL1        0.1647
     18 C           8.6279   -0.6092    0.0000 C.ar    1  UNL1        0.1588
     19 C           8.6279    1.1229    0.0000 C.ar    1  UNL1       -0.0159
     20 C           9.1279    0.2569    0.0000 C.ar    1  UNL1        0.1613
     21 C           2.0000   -1.7431    0.0000 C.3     1  UNL1        0.0790
     22 C          10.6279    1.1229    0.0000 C.3     1  UNL1        0.0790
     23 H           5.1068    1.5010    0.0000 H       1  UNL1        0.0387
     24 H           6.4096   -0.2954    0.0000 H       1  UNL1        0.0790
     25 H           6.4443    1.8195    0.0000 H       1  UNL1        0.0237
     26 H           6.0476    2.6014    0.0000 H       1  UNL1        0.0237
     27 H           5.2656    2.2047    0.0000 H       1  UNL1        0.0237
     28 H           3.7320    1.8769    0.0000 H       1  UNL1        0.0659
     29 H           3.7320   -1.3631    0.0000 H       1  UNL1        0.0692
     30 H           7.3179   -1.1461    0.0000 H       1  UNL1        0.0659
     31 H           7.3179    1.6598    0.0000 H       1  UNL1        0.0623
     32 H           8.9379    1.6598    0.0000 H       1  UNL1        0.0655
     33 H           2.0000    1.8769    0.0000 H       1  UNL1        0.2923
     34 H           8.8179   -2.0121    0.0000 H       1  UNL1        0.2923
     35 H           1.3800   -1.7431    0.0000 H       1  UNL1        0.0660
     36 H           2.0000   -2.3631    0.0000 H       1  UNL1        0.0660
     37 H           2.6200   -1.7431    0.0000 H       1  UNL1        0.0660
     38 H          11.1648    0.8129    0.0000 H       1  UNL1        0.0660
     39 H          10.9379    1.6598    0.0000 H       1  UNL1        0.0660
     40 H          10.0910    1.4329    0.0000 H       1  UNL1        0.0660
@<TRIPOS>BOND
     1     1     7    1
     2     1     9    1
     3     2    17    1
     4     2    21    1
     5     3    16    1
     6     3    33    1
     7     4    18    1
     8     4    34    1
     9     5    20    1
    10     5    22    1
    11     6     7    1
    12     6     8    1
    13     6    11    1
    14     6    23    1
    15     7    10    1
    16     7    24    1
    17     8     9   ar
    18     8    12   ar
    19     9    13   ar
    20    10    14   ar
    21    10    15   ar
    22    11    25    1
    23    11    26    1
    24    11    27    1
    25    12    16   ar
    26    12    28    1
    27    13    17   ar
    28    13    29    1
    29    14    18   ar
    30    14    30    1
    31    15    19   ar
    32    15    31    1
    33    16    17   ar
    34    18    20   ar
    35    19    20   ar
    36    19    32    1
    37    21    35    1
    38    21    36    1
    39    21    37    1
    40    22    38    1
    41    22    39    1
    42    22    40    1
