@<TRIPOS>MOLECULE
IMPHY007110
 26 26 0 0 0
SMALL
GASTEIGER

@<TRIPOS>ATOM
      1 O           2.0000    0.2694    0.0000 O.2     1  UNL1       -0.2920
      2 O           3.3660   -2.7694    0.0000 O.2     1  UNL1       -0.4703
      3 C           4.5981    1.7694    0.0000 C.3     1  UNL1       -0.0463
      4 C           3.7320    1.2694    0.0000 C.3     1  UNL1       -0.0437
      5 C           3.7320    0.2694    0.0000 C.3     1  UNL1        0.0108
      6 C           4.5981    2.7694    0.0000 C.3     1  UNL1       -0.0627
      7 C           5.4641    1.2694    0.0000 C.3     1  UNL1       -0.0627
      8 C           2.8660   -0.2306    0.0000 C.2     1  UNL1        0.1662
      9 C           2.8660   -1.2306    0.0000 C.ar    1  UNL1        0.0550
     10 C           2.0570   -1.8184    0.0000 C.ar    1  UNL1       -0.0134
     11 C           3.6750   -1.8184    0.0000 C.ar    1  UNL1        0.1021
     12 C           2.3660   -2.7694    0.0000 C.ar    1  UNL1        0.0924
     13 H           4.5981    1.1494    0.0000 H       1  UNL1        0.0296
     14 H           3.5200    1.8520    0.0000 H       1  UNL1        0.0272
     15 H           3.1215    1.1618    0.0000 H       1  UNL1        0.0272
     16 H           3.9441   -0.3132    0.0000 H       1  UNL1        0.0345
     17 H           4.3426    0.3771    0.0000 H       1  UNL1        0.0345
     18 H           5.2181    2.7694    0.0000 H       1  UNL1        0.0232
     19 H           4.5981    3.3894    0.0000 H       1  UNL1        0.0232
     20 H           3.9781    2.7694    0.0000 H       1  UNL1        0.0232
     21 H           5.1541    0.7325    0.0000 H       1  UNL1        0.0232
     22 H           6.0010    0.9594    0.0000 H       1  UNL1        0.0232
     23 H           5.7741    1.8064    0.0000 H       1  UNL1        0.0232
     24 H           1.4674   -1.6268    0.0000 H       1  UNL1        0.0656
     25 H           4.2647   -1.6268    0.0000 H       1  UNL1        0.1036
     26 H           2.0016   -3.2710    0.0000 H       1  UNL1        0.1029
@<TRIPOS>BOND
     1     1     8    2
     2     2    11   ar
     3     2    12   ar
     4     3     4    1
     5     3     6    1
     6     3     7    1
     7     3    13    1
     8     4     5    1
     9     4    14    1
    10     4    15    1
    11     5     8    1
    12     5    16    1
    13     5    17    1
    14     6    18    1
    15     6    19    1
    16     6    20    1
    17     7    21    1
    18     7    22    1
    19     7    23    1
    20     8     9    1
    21     9    10   ar
    22     9    11   ar
    23    10    12   ar
    24    10    24    1
    25    11    25    1
    26    12    26    1
