@<TRIPOS>MOLECULE
IMPHY016329
 36 37 0 0 0
SMALL
GASTEIGER

@<TRIPOS>ATOM
      1 C           2.8660   -1.0121    0.0000 C.3     1  UNL1       -0.0215
      2 C           8.1282    1.0121    0.0000 C.3     1  UNL1       -0.0215
      3 C           3.7320   -0.5121    0.0000 C.ar    1  UNL1       -0.0442
      4 C           7.2641    0.5087    0.0000 C.ar    1  UNL1       -0.0442
      5 C           5.4641   -0.5121    0.0000 C.ar    1  UNL1       -0.0176
      6 C           5.4641    0.4879    0.0000 C.ar    1  UNL1       -0.0176
      7 C           4.5981   -1.0121    0.0000 C.ar    1  UNL1       -0.0506
      8 C           6.3580    1.0226    0.0000 C.ar    1  UNL1       -0.0506
      9 C           3.7320    0.4879    0.0000 C.ar    1  UNL1       -0.0577
     10 C           7.2641   -0.5329    0.0000 C.ar    1  UNL1       -0.0577
     11 C           4.5981    0.9879    0.0000 C.ar    1  UNL1       -0.0538
     12 C           6.3580   -1.0467    0.0000 C.ar    1  UNL1       -0.0538
     13 C           2.0000   -0.5121    0.0000 C.3     1  UNL1       -0.0586
     14 C           2.8660   -2.0121    0.0000 C.3     1  UNL1       -0.0586
     15 C           8.9962    0.5154    0.0000 C.3     1  UNL1       -0.0586
     16 C           8.1244    2.0121    0.0000 C.3     1  UNL1       -0.0586
     17 H           2.8660   -0.3921    0.0000 H       1  UNL1        0.0343
     18 H           8.6639    1.3242    0.0000 H       1  UNL1        0.0343
     19 H           4.5981   -1.6321    0.0000 H       1  UNL1        0.0626
     20 H           6.3509    1.6426    0.0000 H       1  UNL1        0.0626
     21 H           3.1951    0.7979    0.0000 H       1  UNL1        0.0621
     22 H           7.7998   -0.8450    0.0000 H       1  UNL1        0.0621
     23 H           4.5981    1.6079    0.0000 H       1  UNL1        0.0624
     24 H           6.3509   -1.6667    0.0000 H       1  UNL1        0.0624
     25 H           2.3100    0.0249    0.0000 H       1  UNL1        0.0235
     26 H           1.4631   -0.2021    0.0000 H       1  UNL1        0.0235
     27 H           1.6900   -1.0490    0.0000 H       1  UNL1        0.0235
     28 H           2.2460   -2.0121    0.0000 H       1  UNL1        0.0235
     29 H           2.8660   -2.6321    0.0000 H       1  UNL1        0.0235
     30 H           3.4860   -2.0121    0.0000 H       1  UNL1        0.0235
     31 H           8.6882   -0.0227    0.0000 H       1  UNL1        0.0235
     32 H           9.5343    0.2075    0.0000 H       1  UNL1        0.0235
     33 H           9.3041    1.0536    0.0000 H       1  UNL1        0.0235
     34 H           8.7443    2.0145    0.0000 H       1  UNL1        0.0235
     35 H           8.1220    2.6321    0.0000 H       1  UNL1        0.0235
     36 H           7.5044    2.0097    0.0000 H       1  UNL1        0.0235
@<TRIPOS>BOND
     1     1     3    1
     2     1    13    1
     3     1    14    1
     4     1    17    1
     5     2     4    1
     6     2    15    1
     7     2    16    1
     8     2    18    1
     9     3     7   ar
    10     3     9   ar
    11     4     8   ar
    12     4    10   ar
    13     5     6   ar
    14     5     7   ar
    15     5    12   ar
    16     6     8   ar
    17     6    11   ar
    18     7    19    1
    19     8    20    1
    20     9    11   ar
    21     9    21    1
    22    10    12   ar
    23    10    22    1
    24    11    23    1
    25    12    24    1
    26    13    25    1
    27    13    26    1
    28    13    27    1
    29    14    28    1
    30    14    29    1
    31    14    30    1
    32    15    31    1
    33    15    32    1
    34    15    33    1
    35    16    34    1
    36    16    35    1
    37    16    36    1
