@<TRIPOS>MOLECULE
IMPHY017952
 15 16 0 0 0
SMALL
GASTEIGER

@<TRIPOS>ATOM
      1 C           0.0000   -5.9839    0.0000 C.3     1  UNL1        0.2525
      2 O           0.0000   -4.6554    0.0000 O.3     1  UNL1       -0.4713
      3 C           1.1489   -3.9912    0.0000 C.ar    1  UNL1        0.1419
      4 C           1.1489   -2.6568    0.0000 C.ar    1  UNL1        0.0737
      5 C           2.3038   -1.9926    0.0000 C.ar    1  UNL1        0.1418
      6 O           2.3038   -0.6642    0.0000 O.3     1  UNL1       -0.4713
      7 C           3.4527    0.0000    0.0000 C.3     1  UNL1        0.2525
      8 C           3.4527   -2.6568    0.0000 C.ar    1  UNL1        0.0373
      9 C           4.6076   -1.9926    0.0000 C.ar    1  UNL1        0.0032
     10 C           5.7565   -2.6568    0.0000 C.ar    1  UNL1        0.0034
     11 C           5.7565   -3.9912    0.0000 C.ar    1  UNL1        0.0420
     12 C           4.6076   -4.6554    0.0000 C.ar    1  UNL1        0.1958
     13 O           4.6076   -5.9839    0.0000 O.3     1  UNL1       -0.2866
     14 C           3.4527   -3.9912    0.0000 C.ar    1  UNL1        0.0449
     15 C           2.3038   -4.6554    0.0000 C.ar    1  UNL1        0.0403
@<TRIPOS>BOND
     1     1     2    1
     2     2     3    1
     3     3     4   ar
     4     3    15   ar
     5     4     5   ar
     6     5     6    1
     7     5     8   ar
     8     6     7    1
     9     8     9   ar
    10     8    14   ar
    11     9    10   ar
    12    10    11   ar
    13    11    12   ar
    14    12    13    1
    15    12    14   ar
    16    14    15   ar
