@<TRIPOS>MOLECULE
IMPHY015693
 82 82 0 0 0
SMALL
GASTEIGER

@<TRIPOS>ATOM
      1 O           4.2690   -0.9050    0.0000 O.3     1  UNL1       -0.3312
      2 O           2.5369   -2.9050    0.0000 O.3     1  UNL1       -0.3865
      3 O           4.2690   -3.9050    0.0000 O.3     1  UNL1       -0.3864
      4 O           6.0010   -0.9050    0.0000 O.3     1  UNL1       -0.4180
      5 O           6.0010   -2.9050    0.0000 O.3     1  UNL1       -0.3829
      6 O           2.5369    0.0950    0.0000 O.3     1  UNL1       -0.3924
      7 O           8.5991    1.5950    0.0000 O.3     1  UNL1       -0.3858
      8 O           5.1350    0.5950    0.0000 O.2     1  UNL1       -0.2264
      9 O           6.0010    3.0950    0.0000 O.3     1  UNL1       -0.3931
     10 N           6.8671    0.5950    0.0000 N.am    1  UNL1       -0.2732
     11 C           3.4030   -2.4050    0.0000 C.3     1  UNL1        0.1120
     12 C           4.2690   -2.9050    0.0000 C.3     1  UNL1        0.1152
     13 C           3.4030   -1.4050    0.0000 C.3     1  UNL1        0.1140
     14 C           5.1350   -2.4050    0.0000 C.3     1  UNL1        0.1456
     15 C           5.1350   -1.4050    0.0000 C.3     1  UNL1        0.2353
     16 C           2.5369   -0.9050    0.0000 C.3     1  UNL1        0.0731
     17 C          13.7953    3.5950    0.0000 C.3     1  UNL1       -0.0531
     18 C          14.6613    3.0950    0.0000 C.3     1  UNL1       -0.0531
     19 C          12.9292    3.0950    0.0000 C.3     1  UNL1       -0.0531
     20 C          15.5273    3.5950    0.0000 C.3     1  UNL1       -0.0531
     21 C          12.0632    3.5950    0.0000 C.3     1  UNL1       -0.0530
     22 C          16.3933    3.0950    0.0000 C.3     1  UNL1       -0.0531
     23 C          11.1972    3.0950    0.0000 C.3     1  UNL1       -0.0528
     24 C          17.2594    3.5950    0.0000 C.3     1  UNL1       -0.0531
     25 C          10.3312    3.5950    0.0000 C.3     1  UNL1       -0.0496
     26 CA          6.8671    1.5950    0.0000 C.3     1  UNL1        0.0787
     27 C           6.0010    0.0950    0.0000 C.2     1  UNL1        0.4029
     28 C          18.1254    3.0950    0.0000 C.3     1  UNL1       -0.0533
     29 C           9.4651    3.0950    0.0000 C.3     1  UNL1       -0.0347
     30 C           7.7331    2.0950    0.0000 C.3     1  UNL1        0.0939
     31 C          18.9914    3.5950    0.0000 C.3     1  UNL1       -0.0559
     32 C           6.0010    2.0950    0.0000 C.3     1  UNL1        0.0654
     33 C           8.5991    3.5950    0.0000 C.2     1  UNL1       -0.0855
     34 C           7.7331    3.0950    0.0000 C.2     1  UNL1       -0.0580
     35 C          19.8574    3.0950    0.0000 C.3     1  UNL1       -0.0653
     36 H           3.4030   -3.0250    0.0000 H       1  UNL1        0.0647
     37 H           3.7320   -3.2150    0.0000 H       1  UNL1        0.0648
     38 H           3.4030   -0.7850    0.0000 H       1  UNL1        0.0647
     39 H           5.1350   -3.0250    0.0000 H       1  UNL1        0.0683
     40 H           5.1350   -0.7850    0.0000 H       1  UNL1        0.1086
     41 H           1.9264   -0.7973    0.0000 H       1  UNL1        0.0584
     42 H           2.3249   -1.4876    0.0000 H       1  UNL1        0.0584
     43 H           2.0000   -2.5950    0.0000 H       1  UNL1        0.2100
     44 H           3.7320   -4.2150    0.0000 H       1  UNL1        0.2100
     45 H          14.1938    4.0700    0.0000 H       1  UNL1        0.0265
     46 H          13.3967    4.0700    0.0000 H       1  UNL1        0.0265
     47 H           6.5380   -2.5950    0.0000 H       1  UNL1        0.2102
     48 H          14.2628    2.6200    0.0000 H       1  UNL1        0.0265
     49 H          15.0598    2.6200    0.0000 H       1  UNL1        0.0265
     50 H          12.5307    2.6200    0.0000 H       1  UNL1        0.0265
     51 H          13.3278    2.6200    0.0000 H       1  UNL1        0.0265
     52 H          15.9258    4.0700    0.0000 H       1  UNL1        0.0265
     53 H          15.1288    4.0700    0.0000 H       1  UNL1        0.0265
     54 H          12.4617    4.0700    0.0000 H       1  UNL1        0.0265
     55 H          11.6647    4.0700    0.0000 H       1  UNL1        0.0265
     56 H          15.9948    2.6200    0.0000 H       1  UNL1        0.0265
     57 H          16.7919    2.6200    0.0000 H       1  UNL1        0.0265
     58 H          10.7987    2.6200    0.0000 H       1  UNL1        0.0265
     59 H          11.5957    2.6200    0.0000 H       1  UNL1        0.0265
     60 H          17.6579    4.0700    0.0000 H       1  UNL1        0.0265
     61 H          16.8608    4.0700    0.0000 H       1  UNL1        0.0265
     62 H          10.7297    4.0700    0.0000 H       1  UNL1        0.0268
     63 H           9.9326    4.0700    0.0000 H       1  UNL1        0.0268
     64 HA          7.4040    1.2850    0.0000 H       1  UNL1        0.0551
     65 H           2.0000    0.4050    0.0000 H       1  UNL1        0.2095
     66 H          17.7269    2.6200    0.0000 H       1  UNL1        0.0265
     67 H          18.5239    2.6200    0.0000 H       1  UNL1        0.0265
     68 H           9.0666    2.6200    0.0000 H       1  UNL1        0.0307
     69 H           9.8637    2.6200    0.0000 H       1  UNL1        0.0307
     70 H           8.2700    2.4050    0.0000 H       1  UNL1        0.0657
     71 H           7.4040    0.2850    0.0000 H       1  UNL1        0.1525
     72 H          19.3899    4.0700    0.0000 H       1  UNL1        0.0263
     73 H          18.5929    4.0700    0.0000 H       1  UNL1        0.0263
     74 H           8.5991    4.2150    0.0000 H       1  UNL1        0.0570
     75 H1          5.3905    2.2027    0.0000 H       1  UNL1        0.0576
     76 H2          5.7890    1.5124    0.0000 H       1  UNL1        0.0576
     77 H           7.1962    3.4050    0.0000 H       1  UNL1        0.0595
     78 H          19.5474    2.5581    0.0000 H       1  UNL1        0.0230
     79 H          20.3944    2.7850    0.0000 H       1  UNL1        0.0230
     80 H          20.1674    3.6319    0.0000 H       1  UNL1        0.0230
     81 H           9.1360    1.9050    0.0000 H       1  UNL1        0.2103
     82 H           5.4641    3.4050    0.0000 H       1  UNL1        0.2095
@<TRIPOS>BOND
     1     1    13    1
     2     1    15    1
     3    11     2    1
     4     2    43    1
     5    12     3    1
     6     3    44    1
     7    15     4    1
     8     4    27    1
     9    14     5    1
    10     5    47    1
    11     6    16    1
    12     6    65    1
    13     7    30    1
    14     7    81    1
    15     8    27    2
    16     9    32    1
    17     9    82    1
    18    10    26    1
    19    10    27   am
    20    10    71    1
    21    11    12    1
    22    11    13    1
    23    11    36    1
    24    12    14    1
    25    12    37    1
    26    13    16    1
    27    13    38    1
    28    14    15    1
    29    14    39    1
    30    15    40    1
    31    16    41    1
    32    16    42    1
    33    17    18    1
    34    17    19    1
    35    17    45    1
    36    17    46    1
    37    18    20    1
    38    18    48    1
    39    18    49    1
    40    19    21    1
    41    19    50    1
    42    19    51    1
    43    20    22    1
    44    20    52    1
    45    20    53    1
    46    21    23    1
    47    21    54    1
    48    21    55    1
    49    22    24    1
    50    22    56    1
    51    22    57    1
    52    23    25    1
    53    23    58    1
    54    23    59    1
    55    24    28    1
    56    24    60    1
    57    24    61    1
    58    25    29    1
    59    25    62    1
    60    25    63    1
    61    26    30    1
    62    26    32    1
    63    26    64    1
    64    28    31    1
    65    28    66    1
    66    28    67    1
    67    29    33    1
    68    29    68    1
    69    29    69    1
    70    30    34    1
    71    30    70    1
    72    31    35    1
    73    31    72    1
    74    31    73    1
    75    32    75    1
    76    32    76    1
    77    33    34    2
    78    33    74    1
    79    34    77    1
    80    35    78    1
    81    35    79    1
    82    35    80    1
