@<TRIPOS>MOLECULE
IMPHY003274
 51 51 0 0 0
SMALL
GASTEIGER

@<TRIPOS>ATOM
      1 O           6.3301   -2.5000    0.0000 O.3     1  UNL1       -0.4646
      2 O           5.4641   -1.0000    0.0000 O.2     1  UNL1       -0.2509
      3 C           2.8660    2.5000    0.0000 C.3     1  UNL1       -0.0531
      4 C           3.7320    2.0000    0.0000 C.3     1  UNL1       -0.0531
      5 C           2.0000    2.0000    0.0000 C.3     1  UNL1       -0.0531
      6 C           4.5981    2.5000    0.0000 C.3     1  UNL1       -0.0531
      7 C           2.0000    1.0000    0.0000 C.3     1  UNL1       -0.0531
      8 C           5.4641    2.0000    0.0000 C.3     1  UNL1       -0.0531
      9 C           2.8660    0.5000    0.0000 C.3     1  UNL1       -0.0531
     10 C           5.4641    1.0000    0.0000 C.3     1  UNL1       -0.0531
     11 C           2.8660   -0.5000    0.0000 C.3     1  UNL1       -0.0530
     12 C           6.3301    0.5000    0.0000 C.3     1  UNL1       -0.0530
     13 C           3.7320   -1.0000    0.0000 C.3     1  UNL1       -0.0526
     14 C           6.3301   -0.5000    0.0000 C.3     1  UNL1       -0.0500
     15 C           3.7320   -2.0000    0.0000 C.3     1  UNL1       -0.0430
     16 C           7.1962   -1.0000    0.0000 C.3     1  UNL1       -0.0185
     17 C           4.5981   -2.5000    0.0000 C.3     1  UNL1        0.0449
     18 C           7.1962   -2.0000    0.0000 C.3     1  UNL1        0.0925
     19 C           5.4641   -2.0000    0.0000 C.2     1  UNL1        0.3071
     20 H           3.2646    2.9750    0.0000 H       1  UNL1        0.0265
     21 H           2.4675    2.9750    0.0000 H       1  UNL1        0.0265
     22 H           3.3335    1.5250    0.0000 H       1  UNL1        0.0265
     23 H           4.1306    1.5250    0.0000 H       1  UNL1        0.0265
     24 H           1.7880    2.5826    0.0000 H       1  UNL1        0.0265
     25 H           1.3894    1.8923    0.0000 H       1  UNL1        0.0265
     26 H           4.9966    2.9750    0.0000 H       1  UNL1        0.0265
     27 H           4.1996    2.9750    0.0000 H       1  UNL1        0.0265
     28 H           1.3894    1.1077    0.0000 H       1  UNL1        0.0265
     29 H           1.7880    0.4174    0.0000 H       1  UNL1        0.0265
     30 H           6.0747    1.8923    0.0000 H       1  UNL1        0.0265
     31 H           5.6762    2.5826    0.0000 H       1  UNL1        0.0265
     32 H           3.4766    0.3923    0.0000 H       1  UNL1        0.0265
     33 H           3.0781    1.0826    0.0000 H       1  UNL1        0.0265
     34 H           4.8535    1.1077    0.0000 H       1  UNL1        0.0265
     35 H           5.2520    0.4174    0.0000 H       1  UNL1        0.0265
     36 H           2.2554   -0.3923    0.0000 H       1  UNL1        0.0265
     37 H           2.6540   -1.0826    0.0000 H       1  UNL1        0.0265
     38 H           6.9407    0.3923    0.0000 H       1  UNL1        0.0265
     39 H           6.5422    1.0826    0.0000 H       1  UNL1        0.0265
     40 H           4.3426   -1.1077    0.0000 H       1  UNL1        0.0265
     41 H           3.9441   -0.4174    0.0000 H       1  UNL1        0.0265
     42 H           5.7196   -0.3923    0.0000 H       1  UNL1        0.0266
     43 H           6.1181   -1.0826    0.0000 H       1  UNL1        0.0266
     44 H           3.1215   -1.8923    0.0000 H       1  UNL1        0.0270
     45 H           3.5200   -2.5826    0.0000 H       1  UNL1        0.0270
     46 H           7.8067   -1.1077    0.0000 H       1  UNL1        0.0298
     47 H           7.4082   -0.4174    0.0000 H       1  UNL1        0.0298
     48 H           4.1996   -2.9750    0.0000 H       1  UNL1        0.0377
     49 H           4.9966   -2.9750    0.0000 H       1  UNL1        0.0377
     50 H           7.4082   -2.5826    0.0000 H       1  UNL1        0.0697
     51 H           7.8067   -1.8923    0.0000 H       1  UNL1        0.0697
@<TRIPOS>BOND
     1     1    18    1
     2     1    19    1
     3     2    19    2
     4     3     4    1
     5     3     5    1
     6     3    20    1
     7     3    21    1
     8     4     6    1
     9     4    22    1
    10     4    23    1
    11     5     7    1
    12     5    24    1
    13     5    25    1
    14     6     8    1
    15     6    26    1
    16     6    27    1
    17     7     9    1
    18     7    28    1
    19     7    29    1
    20     8    10    1
    21     8    30    1
    22     8    31    1
    23     9    11    1
    24     9    32    1
    25     9    33    1
    26    10    12    1
    27    10    34    1
    28    10    35    1
    29    11    13    1
    30    11    36    1
    31    11    37    1
    32    12    14    1
    33    12    38    1
    34    12    39    1
    35    13    15    1
    36    13    40    1
    37    13    41    1
    38    14    16    1
    39    14    42    1
    40    14    43    1
    41    15    17    1
    42    15    44    1
    43    15    45    1
    44    16    18    1
    45    16    46    1
    46    16    47    1
    47    17    19    1
    48    17    48    1
    49    17    49    1
    50    18    50    1
    51    18    51    1
