@<TRIPOS>MOLECULE
IMPHY008186
 45 48 0 0 0
SMALL
GASTEIGER

@<TRIPOS>ATOM
      1 O          10.4728   -1.8578    0.0000 O.3     1  UNL1       -0.4852
      2 O          13.0564   -1.0531    0.0000 O.3     1  UNL1       -0.3855
      3 O           6.9006   -2.0877    0.0000 O.2     1  UNL1       -0.4618
      4 O           8.6605    0.9469    0.0000 O.3     1  UNL1       -0.5055
      5 O           6.9121    0.9815    0.0000 O.2     1  UNL1       -0.2863
      6 O           6.0022    1.4677    0.0000 O.3     1  UNL1       -0.5060
      7 O           2.5381    1.4811    0.0000 O.3     1  UNL1       -0.5066
      8 C          11.0564   -1.0531    0.0000 C.3     1  UNL1        0.1323
      9 C          12.0564   -1.0531    0.0000 C.3     1  UNL1        0.0974
     10 C          10.4728   -0.2483    0.0000 C.3     1  UNL1        0.0192
     11 C           9.5266   -0.5531    0.0000 C.ar    1  UNL1        0.0401
     12 C           9.5266   -1.5531    0.0000 C.ar    1  UNL1        0.1313
     13 C          12.0564   -2.0531    0.0000 C.3     1  UNL1       -0.0328
     14 C          12.0564   -0.0531    0.0000 C.3     1  UNL1       -0.0328
     15 C           8.6605   -0.0531    0.0000 C.ar    1  UNL1        0.1380
     16 C           8.6605   -2.0531    0.0000 C.ar    1  UNL1        0.0236
     17 C           7.7945   -0.5531    0.0000 C.ar    1  UNL1        0.1063
     18 C           7.7945   -1.5531    0.0000 C.ar    1  UNL1        0.1454
     19 C           6.9006   -0.0184    0.0000 C.ar    1  UNL1        0.2038
     20 C           5.9945   -0.5323    0.0000 C.ar    1  UNL1        0.0679
     21 C           5.9945   -1.5739    0.0000 C.ar    1  UNL1        0.1040
     22 C           5.1304   -0.0289    0.0000 C.ar    1  UNL1        0.0304
     23 C           5.1343    0.9711    0.0000 C.ar    1  UNL1        0.1282
     24 C           4.2625   -0.5256    0.0000 C.ar    1  UNL1       -0.0469
     25 C           4.2702    1.4744    0.0000 C.ar    1  UNL1        0.0219
     26 C           3.3984   -0.0222    0.0000 C.ar    1  UNL1       -0.0194
     27 C           3.4022    0.9778    0.0000 C.ar    1  UNL1        0.1204
     28 H          11.3381   -1.6054    0.0000 H       1  UNL1        0.0765
     29 H          11.0102    0.0609    0.0000 H       1  UNL1        0.0352
     30 H          10.2217    0.3186    0.0000 H       1  UNL1        0.0352
     31 H          11.4364   -2.0531    0.0000 H       1  UNL1        0.0258
     32 H          12.0564   -2.6731    0.0000 H       1  UNL1        0.0258
     33 H          12.6764   -2.0531    0.0000 H       1  UNL1        0.0258
     34 H          12.6764   -0.0531    0.0000 H       1  UNL1        0.0258
     35 H          12.0564    0.5669    0.0000 H       1  UNL1        0.0258
     36 H          11.4364   -0.0531    0.0000 H       1  UNL1        0.0258
     37 H           8.6605   -2.6731    0.0000 H       1  UNL1        0.0691
     38 H          13.3664   -1.5900    0.0000 H       1  UNL1        0.2103
     39 H           9.1975    1.2569    0.0000 H       1  UNL1        0.2922
     40 H           5.4588   -1.8860    0.0000 H       1  UNL1        0.1037
     41 H           4.2601   -1.1456    0.0000 H       1  UNL1        0.0626
     42 H           4.2726    2.0944    0.0000 H       1  UNL1        0.0691
     43 H           2.8602   -0.3302    0.0000 H       1  UNL1        0.0654
     44 H           6.0046    2.0877    0.0000 H       1  UNL1        0.2922
     45 H           2.0000    1.1732    0.0000 H       1  UNL1        0.2921
@<TRIPOS>BOND
     1     1     8    1
     2     1    12    1
     3     2     9    1
     4     2    38    1
     5     3    18   ar
     6     3    21   ar
     7     4    15    1
     8     4    39    1
     9     5    19    2
    10     6    23    1
    11     6    44    1
    12     7    27    1
    13     7    45    1
    14     8     9    1
    15     8    10    1
    16     8    28    1
    17     9    13    1
    18     9    14    1
    19    10    11    1
    20    10    29    1
    21    10    30    1
    22    11    12   ar
    23    11    15   ar
    24    12    16   ar
    25    13    31    1
    26    13    32    1
    27    13    33    1
    28    14    34    1
    29    14    35    1
    30    14    36    1
    31    15    17   ar
    32    16    18   ar
    33    16    37    1
    34    17    18   ar
    35    17    19   ar
    36    19    20   ar
    37    20    21   ar
    38    20    22    1
    39    21    40    1
    40    22    23   ar
    41    22    24   ar
    42    23    25   ar
    43    24    26   ar
    44    24    41    1
    45    25    27   ar
    46    25    42    1
    47    26    27   ar
    48    26    43    1
