@<TRIPOS>MOLECULE
IMPHY004991
 37 38 0 0 0
SMALL
GASTEIGER

@<TRIPOS>ATOM
      1 O           2.5369   -0.8100    0.0000 O.3     1  UNL1       -0.5064
      2 O           4.2690   -3.8100    0.0000 O.3     1  UNL1       -0.4950
      3 O           8.5991    3.6900    0.0000 O.3     1  UNL1       -0.5068
      4 C           5.1350    0.6900    0.0000 C.3     1  UNL1       -0.0450
      5 C           4.2690    0.1900    0.0000 C.3     1  UNL1       -0.0239
      6 C           5.1350    1.6900    0.0000 C.3     1  UNL1       -0.0274
      7 C           4.2690   -0.8100    0.0000 C.ar    1  UNL1       -0.0057
      8 C           6.0010    2.1900    0.0000 C.ar    1  UNL1       -0.0471
      9 C           3.4030   -1.3100    0.0000 C.ar    1  UNL1        0.1235
     10 C           5.1350   -1.3100    0.0000 C.ar    1  UNL1       -0.0517
     11 C           6.8671    1.6900    0.0000 C.ar    1  UNL1       -0.0551
     12 C           6.0010    3.1900    0.0000 C.ar    1  UNL1       -0.0551
     13 C           3.4030   -2.3100    0.0000 C.ar    1  UNL1        0.0218
     14 C           5.1350   -2.3100    0.0000 C.ar    1  UNL1       -0.0195
     15 C           4.2690   -2.8100    0.0000 C.ar    1  UNL1        0.1236
     16 C           7.7331    2.1900    0.0000 C.ar    1  UNL1       -0.0199
     17 C           6.8671    3.6900    0.0000 C.ar    1  UNL1       -0.0199
     18 C           7.7331    3.1900    0.0000 C.ar    1  UNL1        0.1169
     19 C           5.1350   -4.3100    0.0000 C.3     1  UNL1        0.0788
     20 H           5.3471    0.1074    0.0000 H       1  UNL1        0.0272
     21 H           5.7456    0.7977    0.0000 H       1  UNL1        0.0272
     22 H           4.0569    0.7726    0.0000 H       1  UNL1        0.0314
     23 H           3.6584    0.0823    0.0000 H       1  UNL1        0.0314
     24 H           4.9230    2.2726    0.0000 H       1  UNL1        0.0313
     25 H           4.5244    1.5823    0.0000 H       1  UNL1        0.0313
     26 H           5.6720   -1.0000    0.0000 H       1  UNL1        0.0623
     27 H           6.8671    1.0700    0.0000 H       1  UNL1        0.0621
     28 H           5.4641    3.5000    0.0000 H       1  UNL1        0.0621
     29 H           2.8660   -2.6200    0.0000 H       1  UNL1        0.0691
     30 H           5.6720   -2.6200    0.0000 H       1  UNL1        0.0654
     31 H           8.2700    1.8800    0.0000 H       1  UNL1        0.0654
     32 H           6.8671    4.3100    0.0000 H       1  UNL1        0.0654
     33 H           2.0000   -1.1200    0.0000 H       1  UNL1        0.2921
     34 H           8.5991    4.3100    0.0000 H       1  UNL1        0.2921
     35 H           4.8250   -4.8469    0.0000 H       1  UNL1        0.0660
     36 H           5.6720   -4.6200    0.0000 H       1  UNL1        0.0660
     37 H           5.4450   -3.7731    0.0000 H       1  UNL1        0.0660
@<TRIPOS>BOND
     1     1     9    1
     2     1    33    1
     3     2    15    1
     4     2    19    1
     5     3    18    1
     6     3    34    1
     7     4     5    1
     8     4     6    1
     9     4    20    1
    10     4    21    1
    11     5     7    1
    12     5    22    1
    13     5    23    1
    14     6     8    1
    15     6    24    1
    16     6    25    1
    17     7     9   ar
    18     7    10   ar
    19     8    11   ar
    20     8    12   ar
    21     9    13   ar
    22    10    14   ar
    23    10    26    1
    24    11    16   ar
    25    11    27    1
    26    12    17   ar
    27    12    28    1
    28    13    15   ar
    29    13    29    1
    30    14    15   ar
    31    14    30    1
    32    16    18   ar
    33    16    31    1
    34    17    18   ar
    35    17    32    1
    36    19    35    1
    37    19    36    1
    38    19    37    1
