@<TRIPOS>MOLECULE
IMPHY003716
 54 58 0 0 0
SMALL
GASTEIGER

@<TRIPOS>ATOM
      1 O          11.3746   -0.3112    0.0000 O.2     1  UNL1       -0.4957
      2 O           9.2094   -2.5737    0.0000 O.3     1  UNL1       -0.4646
      3 O           7.9357   -1.3999    0.0000 O.2     1  UNL1       -0.2452
      4 O           2.6726    1.9031    0.0000 O.3     1  UNL1       -0.4950
      5 N           8.6152    2.1163    0.0000 N.3     1  UNL1       -0.2933
      6 N           6.1621    0.9988    0.0000 N.ar    1  UNL1       -0.3564
      7 C           9.9668    0.9273    0.0000 C.3     1  UNL1        0.0157
      8 C           9.2698    0.1532    0.0000 C.3     1  UNL1        0.0029
      9 C           7.9460    1.3731    0.0000 C.3     1  UNL1        0.0515
     10 C           8.2526    0.3776    0.0000 C.3     1  UNL1       -0.0243
     11 C           9.6372    1.9154    0.0000 C.3     1  UNL1        0.0063
     12 C          11.0314    0.7181    0.0000 C.3     1  UNL1        0.1011
     13 C           6.9679    1.5810    0.0000 C.ar    1  UNL1        0.0376
     14 C           8.3061    3.0673    0.0000 C.3     1  UNL1        0.0036
     15 C           6.6589    2.5321    0.0000 C.ar    1  UNL1       -0.0164
     16 C           7.3280    3.2752    0.0000 C.3     1  UNL1       -0.0125
     17 C           9.5891   -0.8837    0.0000 C.2     1  UNL1        0.0742
     18 C           5.6648    2.5295    0.0000 C.ar    1  UNL1        0.0034
     19 C          11.6919    1.4689    0.0000 C.3     1  UNL1       -0.0275
     20 C          10.6486   -1.1175    0.0000 C.2     1  UNL1        0.0951
     21 C           5.3584    1.5838    0.0000 C.ar    1  UNL1        0.0505
     22 C           8.9114   -1.6191    0.0000 C.2     1  UNL1        0.3381
     23 C           4.9832    3.3090    0.0000 C.ar    1  UNL1       -0.0489
     24 C           4.3492    1.3521    0.0000 C.ar    1  UNL1        0.0040
     25 C           3.9689    3.1007    0.0000 C.ar    1  UNL1       -0.0193
     26 C           3.6498    2.1156    0.0000 C.ar    1  UNL1        0.1221
     27 C           8.5317   -3.3090    0.0000 C.3     1  UNL1        0.0820
     28 C           2.0000    2.6430    0.0000 C.3     1  UNL1        0.0788
     29 H          10.5282    1.5655    0.0000 H       1  UNL1        0.0355
     30 H           8.6937   -0.4718    0.0000 H       1  UNL1        0.0357
     31 H           7.3724    0.7459    0.0000 H       1  UNL1        0.0527
     32 H           7.6376    0.2992    0.0000 H       1  UNL1        0.0290
     33 H           8.2246   -0.2417    0.0000 H       1  UNL1        0.0290
     34 H          10.2503    2.0080    0.0000 H       1  UNL1        0.0431
     35 H           9.6509    2.5353    0.0000 H       1  UNL1        0.0431
     36 H          11.6391    0.5950    0.0000 H       1  UNL1        0.0733
     37 H           8.9201    3.1536    0.0000 H       1  UNL1        0.0430
     38 H           8.3278    3.6869    0.0000 H       1  UNL1        0.0430
     39 H           7.5602    3.8501    0.0000 H       1  UNL1        0.0326
     40 H           6.8022    3.6038    0.0000 H       1  UNL1        0.0326
     41 H           6.1611    0.3788    0.0000 H       1  UNL1        0.1656
     42 H          12.1574    1.0594    0.0000 H       1  UNL1        0.0265
     43 H          12.1014    1.9344    0.0000 H       1  UNL1        0.0265
     44 H          11.2264    1.8784    0.0000 H       1  UNL1        0.0265
     45 H          10.8379   -1.7079    0.0000 H       1  UNL1        0.1028
     46 H           5.1811    3.8966    0.0000 H       1  UNL1        0.0625
     47 H           4.1650    0.7601    0.0000 H       1  UNL1        0.0675
     48 H           3.5554    3.5626    0.0000 H       1  UNL1        0.0654
     49 H           8.0758   -2.8888    0.0000 H       1  UNL1        0.0661
     50 H           8.1116   -3.7649    0.0000 H       1  UNL1        0.0661
     51 H           8.9877   -3.7292    0.0000 H       1  UNL1        0.0661
     52 H           2.4588    3.0601    0.0000 H       1  UNL1        0.0660
     53 H           1.5830    3.1018    0.0000 H       1  UNL1        0.0660
     54 H           1.5412    2.2260    0.0000 H       1  UNL1        0.0660
@<TRIPOS>BOND
     1     1    12    1
     2     1    20    1
     3     2    22    1
     4     2    27    1
     5     3    22    2
     6     4    26    1
     7     4    28    1
     8     5     9    1
     9     5    11    1
    10     5    14    1
    11     6    13   ar
    12     6    21   ar
    13     6    41    1
    14     7     8    1
    15     7    11    1
    16     7    12    1
    17     7    29    1
    18     8    10    1
    19     8    17    1
    20     8    30    1
    21     9    10    1
    22     9    13    1
    23     9    31    1
    24    10    32    1
    25    10    33    1
    26    11    34    1
    27    11    35    1
    28    12    19    1
    29    12    36    1
    30    13    15   ar
    31    14    16    1
    32    14    37    1
    33    14    38    1
    34    15    16    1
    35    15    18   ar
    36    16    39    1
    37    16    40    1
    38    17    20    2
    39    17    22    1
    40    18    21   ar
    41    18    23   ar
    42    19    42    1
    43    19    43    1
    44    19    44    1
    45    20    45    1
    46    21    24   ar
    47    23    25   ar
    48    23    46    1
    49    24    26   ar
    50    24    47    1
    51    25    26   ar
    52    25    48    1
    53    27    49    1
    54    27    50    1
    55    27    51    1
    56    28    52    1
    57    28    53    1
    58    28    54    1
