@<TRIPOS>MOLECULE
IMPHY010187
 50 52 0 0 0
SMALL
GASTEIGER

@<TRIPOS>ATOM
      1 O           2.3038   -2.3072    0.0000 O.3     1  UNL1       -0.4802
      2 O           3.8137   -3.1558    0.0000 O.2     1  UNL1       -0.2504
      3 C           4.6876   -0.8892    0.0000 C.3     1  UNL1       -0.0158
      4 C           4.6876    0.1108    0.0000 C.3     1  UNL1       -0.0030
      5 C           3.7937   -1.4239    0.0000 C.3     1  UNL1        0.0684
      6 C           3.7937    0.6454    0.0000 C.3     1  UNL1       -0.0433
      7 C           5.5536   -1.3893    0.0000 C.3     1  UNL1       -0.0444
      8 C           2.8876   -0.9101    0.0000 C.3     1  UNL1       -0.0372
      9 C           2.8876    0.1316    0.0000 C.3     1  UNL1       -0.0512
     10 C           5.5536    0.6108    0.0000 C.ar    1  UNL1       -0.0380
     11 C           6.4196   -0.8892    0.0000 C.3     1  UNL1       -0.0271
     12 C           4.6876    1.1107    0.0000 C.3     1  UNL1       -0.0552
     13 C           6.4196    0.1108    0.0000 C.ar    1  UNL1       -0.0434
     14 C           4.3036   -2.2841    0.0000 C.3     1  UNL1       -0.0491
     15 C           3.3037   -2.2957    0.0000 C.2     1  UNL1        0.3110
     16 C           5.5376    1.6523    0.0000 C.ar    1  UNL1       -0.0575
     17 C           7.3296    0.6176    0.0000 C.ar    1  UNL1       -0.0549
     18 C           7.3377    1.6592    0.0000 C.ar    1  UNL1       -0.0445
     19 C           6.4356    2.1800    0.0000 C.ar    1  UNL1       -0.0580
     20 C           8.2056    2.1558    0.0000 C.3     1  UNL1       -0.0215
     21 C           8.2095    3.1558    0.0000 C.3     1  UNL1       -0.0586
     22 C           9.0697    1.6525    0.0000 C.3     1  UNL1       -0.0586
     23 H           4.6941   -1.7392    0.0000 H       1  UNL1        0.0320
     24 H           4.1982    1.1152    0.0000 H       1  UNL1        0.0274
     25 H           3.4000    1.1244    0.0000 H       1  UNL1        0.0274
     26 H           5.1551   -1.8642    0.0000 H       1  UNL1        0.0272
     27 H           5.9521   -1.8642    0.0000 H       1  UNL1        0.0272
     28 H           2.2767   -0.8040    0.0000 H       1  UNL1        0.0276
     29 H           2.6785   -1.4938    0.0000 H       1  UNL1        0.0276
     30 H           2.6785    0.7153    0.0000 H       1  UNL1        0.0266
     31 H           2.2767    0.0255    0.0000 H       1  UNL1        0.0266
     32 H           6.6317   -1.4719    0.0000 H       1  UNL1        0.0313
     33 H           7.0302   -0.7816    0.0000 H       1  UNL1        0.0313
     34 H           5.3076    1.1107    0.0000 H       1  UNL1        0.0238
     35 H           4.6876    1.7308    0.0000 H       1  UNL1        0.0238
     36 H           4.0676    1.1107    0.0000 H       1  UNL1        0.0238
     37 H           3.7703   -2.6003    0.0000 H       1  UNL1        0.0240
     38 H           4.6198   -2.8174    0.0000 H       1  UNL1        0.0240
     39 H           4.8370   -1.9679    0.0000 H       1  UNL1        0.0240
     40 H           4.9971    1.9560    0.0000 H       1  UNL1        0.0621
     41 H           7.8630    0.3014    0.0000 H       1  UNL1        0.0623
     42 H           6.4332    2.8000    0.0000 H       1  UNL1        0.0620
     43 H           2.0000   -2.8477    0.0000 H       1  UNL1        0.2951
     44 H           8.7438    2.4638    0.0000 H       1  UNL1        0.0343
     45 H           8.8295    3.1535    0.0000 H       1  UNL1        0.0235
     46 H           8.2119    3.7758    0.0000 H       1  UNL1        0.0235
     47 H           7.5895    3.1582    0.0000 H       1  UNL1        0.0235
     48 H           8.7576    1.1168    0.0000 H       1  UNL1        0.0235
     49 H           9.6054    1.3404    0.0000 H       1  UNL1        0.0235
     50 H           9.3818    2.1883    0.0000 H       1  UNL1        0.0235
@<TRIPOS>BOND
     1     1    15    1
     2     1    43    1
     3     2    15    2
     4     3     4    1
     5     3     5    1
     6     3     7    1
     7     3    23    1
     8     4     6    1
     9     4    10    1
    10     4    12    1
    11     5     8    1
    12     5    14    1
    13     5    15    1
    14     6     9    1
    15     6    24    1
    16     6    25    1
    17     7    11    1
    18     7    26    1
    19     7    27    1
    20     8     9    1
    21     8    28    1
    22     8    29    1
    23     9    30    1
    24     9    31    1
    25    10    13   ar
    26    10    16   ar
    27    11    13    1
    28    11    32    1
    29    11    33    1
    30    12    34    1
    31    12    35    1
    32    12    36    1
    33    13    17   ar
    34    14    37    1
    35    14    38    1
    36    14    39    1
    37    16    19   ar
    38    16    40    1
    39    17    18   ar
    40    17    41    1
    41    18    19   ar
    42    18    20    1
    43    19    42    1
    44    20    21    1
    45    20    22    1
    46    20    44    1
    47    21    45    1
    48    21    46    1
    49    21    47    1
    50    22    48    1
    51    22    49    1
    52    22    50    1
