@<TRIPOS>MOLECULE
IMPHY003982
 26 26 0 0 0
SMALL
GASTEIGER

@<TRIPOS>ATOM
      1 C           2.8660    1.7500    0.0000 C.3     1  UNL1       -0.0253
      2 C           2.8660    0.7500    0.0000 C.2     1  UNL1       -0.0669
      3 C           3.7320    0.2500    0.0000 C.3     1  UNL1       -0.0130
      4 C           2.0000   -0.7500    0.0000 C.3     1  UNL1       -0.0135
      5 C           2.0000    0.2500    0.0000 C.2     1  UNL1       -0.0802
      6 C           2.8660   -1.2500    0.0000 C.2     1  UNL1       -0.0725
      7 C           3.7320   -0.7500    0.0000 C.2     1  UNL1       -0.0807
      8 C           3.7320    2.2500    0.0000 C.3     1  UNL1       -0.0589
      9 C           2.0000    2.2500    0.0000 C.3     1  UNL1       -0.0589
     10 C           2.8660   -2.2500    0.0000 C.3     1  UNL1       -0.0435
     11 H           2.8660    2.3700    0.0000 H       1  UNL1        0.0340
     12 H           4.3426    0.1423    0.0000 H       1  UNL1        0.0352
     13 H           3.9441    0.8326    0.0000 H       1  UNL1        0.0352
     14 H           1.3894   -0.6423    0.0000 H       1  UNL1        0.0352
     15 H           1.7880   -1.3326    0.0000 H       1  UNL1        0.0352
     16 H           1.4631    0.5600    0.0000 H       1  UNL1        0.0575
     17 H           4.2690   -1.0600    0.0000 H       1  UNL1        0.0575
     18 H           4.0420    1.7131    0.0000 H       1  UNL1        0.0235
     19 H           4.2690    2.5600    0.0000 H       1  UNL1        0.0235
     20 H           3.4220    2.7869    0.0000 H       1  UNL1        0.0235
     21 H           2.3100    2.7869    0.0000 H       1  UNL1        0.0235
     22 H           1.4631    2.5600    0.0000 H       1  UNL1        0.0235
     23 H           1.6900    1.7131    0.0000 H       1  UNL1        0.0235
     24 H           2.2460   -2.2500    0.0000 H       1  UNL1        0.0274
     25 H           2.8660   -2.8700    0.0000 H       1  UNL1        0.0274
     26 H           3.4860   -2.2500    0.0000 H       1  UNL1        0.0274
@<TRIPOS>BOND
     1     1     2    1
     2     1     8    1
     3     1     9    1
     4     1    11    1
     5     2     3    1
     6     2     5    2
     7     3     7    1
     8     3    12    1
     9     3    13    1
    10     4     5    1
    11     4     6    1
    12     4    14    1
    13     4    15    1
    14     5    16    1
    15     6     7    2
    16     6    10    1
    17     7    17    1
    18     8    18    1
    19     8    19    1
    20     8    20    1
    21     9    21    1
    22     9    22    1
    23     9    23    1
    24    10    24    1
    25    10    25    1
    26    10    26    1
