@<TRIPOS>MOLECULE
IMPHY017799
 31 30 0 0 0
SMALL
GASTEIGER

@<TRIPOS>ATOM
      1 O           6.3301    0.2500    0.0000 O.3     1  UNL1       -0.4646
      2 O           7.1962   -1.2500    0.0000 O.2     1  UNL1       -0.2508
      3 O           9.7942    1.2500    0.0000 O.2     1  UNL1       -0.2977
      4 C           3.7320   -0.2500    0.0000 C.3     1  UNL1       -0.0502
      5 C           4.5981    0.2500    0.0000 C.3     1  UNL1       -0.0185
      6 C           2.8660    0.2500    0.0000 C.3     1  UNL1       -0.0558
      7 C           5.4641   -0.2500    0.0000 C.3     1  UNL1        0.0925
      8 C           2.0000   -0.2500    0.0000 C.3     1  UNL1       -0.0653
      9 C           8.0622    0.2500    0.0000 C.3     1  UNL1        0.0516
     10 C           8.9282   -0.2500    0.0000 C.3     1  UNL1        0.0156
     11 C           7.1962   -0.2500    0.0000 C.2     1  UNL1        0.3075
     12 C           9.7942    0.2500    0.0000 C.2     1  UNL1        0.1308
     13 C          10.6603   -0.2500    0.0000 C.3     1  UNL1       -0.0061
     14 H           3.3335   -0.7249    0.0000 H       1  UNL1        0.0266
     15 H           4.1306   -0.7249    0.0000 H       1  UNL1        0.0266
     16 H           4.9966    0.7249    0.0000 H       1  UNL1        0.0298
     17 H           4.1996    0.7249    0.0000 H       1  UNL1        0.0298
     18 H           3.2646    0.7249    0.0000 H       1  UNL1        0.0263
     19 H           2.4675    0.7249    0.0000 H       1  UNL1        0.0263
     20 H           5.0656   -0.7249    0.0000 H       1  UNL1        0.0697
     21 H           5.8626   -0.7249    0.0000 H       1  UNL1        0.0697
     22 H           1.6900    0.2869    0.0000 H       1  UNL1        0.0230
     23 H           1.4631   -0.5600    0.0000 H       1  UNL1        0.0230
     24 H           2.3100   -0.7869    0.0000 H       1  UNL1        0.0230
     25 H           8.4607    0.7249    0.0000 H       1  UNL1        0.0382
     26 H           7.6636    0.7249    0.0000 H       1  UNL1        0.0382
     27 H           8.5297   -0.7249    0.0000 H       1  UNL1        0.0347
     28 H           9.3267   -0.7249    0.0000 H       1  UNL1        0.0347
     29 H          10.3503   -0.7869    0.0000 H       1  UNL1        0.0306
     30 H          11.1972   -0.5600    0.0000 H       1  UNL1        0.0306
     31 H          10.9703    0.2869    0.0000 H       1  UNL1        0.0306
@<TRIPOS>BOND
     1     1     7    1
     2     1    11    1
     3     2    11    2
     4     3    12    2
     5     4     5    1
     6     4     6    1
     7     4    14    1
     8     4    15    1
     9     5     7    1
    10     5    16    1
    11     5    17    1
    12     6     8    1
    13     6    18    1
    14     6    19    1
    15     7    20    1
    16     7    21    1
    17     8    22    1
    18     8    23    1
    19     8    24    1
    20     9    10    1
    21     9    11    1
    22     9    25    1
    23     9    26    1
    24    10    12    1
    25    10    27    1
    26    10    28    1
    27    12    13    1
    28    13    29    1
    29    13    30    1
    30    13    31    1
