@<TRIPOS>MOLECULE
IMPHY015786
 34 35 0 0 0
SMALL
GASTEIGER

@<TRIPOS>ATOM
      1 O           2.5369   -0.2450    0.0000 O.3     1  UNL1       -0.4773
      2 O           3.4030   -1.7450    0.0000 O.2     1  UNL1       -0.2455
      3 C           6.0010   -0.2450    0.0000 C.3     1  UNL1       -0.0094
      4 C           6.0010    0.7550    0.0000 C.3     1  UNL1       -0.0130
      5 C           6.8950   -0.7797    0.0000 C.3     1  UNL1       -0.0161
      6 C           5.1350    1.2550    0.0000 C.3     1  UNL1       -0.0418
      7 C           7.8010   -0.2658    0.0000 C.3     1  UNL1       -0.0425
      8 C           6.8950    1.2896    0.0000 C.2     1  UNL1       -0.0729
      9 C           7.8010    0.7758    0.0000 C.3     1  UNL1       -0.0312
     10 C           5.1350   -0.7450    0.0000 C.2     1  UNL1       -0.0699
     11 C           4.2690    0.7550    0.0000 C.3     1  UNL1       -0.0207
     12 C           4.2690   -0.2450    0.0000 C.2     1  UNL1        0.0328
     13 C           6.8834   -1.7796    0.0000 C.2     1  UNL1       -0.0874
     14 C           6.8834    2.2896    0.0000 C.2     1  UNL1       -0.0992
     15 C           3.4030   -0.7450    0.0000 C.2     1  UNL1        0.3325
     16 C           7.7436   -2.2896    0.0000 C.2     1  UNL1       -0.1023
     17 H           5.9963   -0.8650    0.0000 H       1  UNL1        0.0355
     18 H           5.9963    1.3750    0.0000 H       1  UNL1        0.0351
     19 H           7.4289   -1.0948    0.0000 H       1  UNL1        0.0349
     20 H           5.5335    1.7299    0.0000 H       1  UNL1        0.0274
     21 H           4.7365    1.7299    0.0000 H       1  UNL1        0.0274
     22 H           8.0101   -0.8495    0.0000 H       1  UNL1        0.0274
     23 H           8.4119   -0.1597    0.0000 H       1  UNL1        0.0274
     24 H           8.4119    0.6697    0.0000 H       1  UNL1        0.0310
     25 H           8.0101    1.3595    0.0000 H       1  UNL1        0.0310
     26 H           5.1350   -1.3650    0.0000 H       1  UNL1        0.0580
     27 H           4.0569    1.3376    0.0000 H       1  UNL1        0.0315
     28 H           3.6584    0.6473    0.0000 H       1  UNL1        0.0315
     29 H           6.3429   -2.0834    0.0000 H       1  UNL1        0.0569
     30 H           7.4167    2.6058    0.0000 H       1  UNL1        0.0534
     31 H           6.3429    2.5934    0.0000 H       1  UNL1        0.0534
     32 H           7.7364   -2.9095    0.0000 H       1  UNL1        0.0532
     33 H           8.2841   -1.9858    0.0000 H       1  UNL1        0.0532
     34 H           2.0000   -0.5550    0.0000 H       1  UNL1        0.2954
@<TRIPOS>BOND
     1     1    15    1
     2     1    34    1
     3     2    15    2
     4     3     4    1
     5     3     5    1
     6     3    10    1
     7     3    17    1
     8     4     6    1
     9     4     8    1
    10     4    18    1
    11     5     7    1
    12     5    13    1
    13     5    19    1
    14     6    11    1
    15     6    20    1
    16     6    21    1
    17     7     9    1
    18     7    22    1
    19     7    23    1
    20     8     9    1
    21     8    14    2
    22     9    24    1
    23     9    25    1
    24    10    12    2
    25    10    26    1
    26    11    12    1
    27    11    27    1
    28    11    28    1
    29    12    15    1
    30    13    16    2
    31    13    29    1
    32    14    30    1
    33    14    31    1
    34    16    32    1
    35    16    33    1
