@<TRIPOS>MOLECULE
IMPHY014567
 40 41 0 0 0
SMALL
GASTEIGER

@<TRIPOS>ATOM
      1 S           6.3633    2.1379    0.0000 S.3     1  UNL1       -0.1481
      2 C           6.3630    1.1375    0.0000 C.3     1  UNL1        0.0293
      3 C           5.4970    1.6375    0.0000 C.3     1  UNL1        0.0208
      4 C           4.6310    1.1375    0.0000 C.3     1  UNL1       -0.0362
      5 C           6.3630    0.1375    0.0000 C.3     1  UNL1       -0.0192
      6 C           7.2291    0.6375    0.0000 C.3     1  UNL1       -0.0491
      7 C           3.6310    1.1375    0.0000 C.3     1  UNL1       -0.0310
      8 C           6.3290   -1.0179    0.0000 C.2     1  UNL1       -0.0861
      9 C           4.5969   -1.0179    0.0000 C.3     1  UNL1       -0.0135
     10 C           2.9239    0.4304    0.0000 C.2     1  UNL1       -0.0765
     11 C           5.4629   -1.5179    0.0000 C.2     1  UNL1       -0.0819
     12 C           3.6310   -1.2767    0.0000 C.3     1  UNL1       -0.0259
     13 C           2.9239   -0.5696    0.0000 C.2     1  UNL1       -0.0842
     14 C           3.9694   -0.2393    0.0000 C.3     1  UNL1       -0.0561
     15 C           5.0015   -0.1034    0.0000 C.3     1  UNL1       -0.0561
     16 C           2.0000    0.8131    0.0000 C.3     1  UNL1       -0.0438
     17 H           5.1869    2.1744    0.0000 H       1  UNL1        0.0426
     18 H           4.4189    0.5549    0.0000 H       1  UNL1        0.0279
     19 H           4.4705    1.7364    0.0000 H       1  UNL1        0.0279
     20 H           6.8938   -0.1830    0.0000 H       1  UNL1        0.0321
     21 H           5.7431    0.1466    0.0000 H       1  UNL1        0.0321
     22 H           6.9191    0.1005    0.0000 H       1  UNL1        0.0243
     23 H           7.7660    0.3275    0.0000 H       1  UNL1        0.0243
     24 H           7.5391    1.1744    0.0000 H       1  UNL1        0.0243
     25 H           3.7914    1.7364    0.0000 H       1  UNL1        0.0310
     26 H           3.0941    1.4475    0.0000 H       1  UNL1        0.0310
     27 H           6.8160   -1.4016    0.0000 H       1  UNL1        0.0570
     28 H           5.4629   -2.1379    0.0000 H       1  UNL1        0.0574
     29 H           3.1231   -1.6324    0.0000 H       1  UNL1        0.0316
     30 H           3.8930   -1.8386    0.0000 H       1  UNL1        0.0316
     31 H           2.3511   -0.8069    0.0000 H       1  UNL1        0.0572
     32 H           4.4522    0.1498    0.0000 H       1  UNL1        0.0238
     33 H           3.5804    0.2435    0.0000 H       1  UNL1        0.0238
     34 H           3.4867   -0.6283    0.0000 H       1  UNL1        0.0238
     35 H           5.5685   -0.3542    0.0000 H       1  UNL1        0.0238
     36 H           5.2523    0.4636    0.0000 H       1  UNL1        0.0238
     37 H           4.4345    0.1474    0.0000 H       1  UNL1        0.0238
     38 H           2.2373    1.3859    0.0000 H       1  UNL1        0.0274
     39 H           1.4272    1.0503    0.0000 H       1  UNL1        0.0274
     40 H           1.7627    0.2402    0.0000 H       1  UNL1        0.0274
@<TRIPOS>BOND
     1     1     2    1
     2     1     3    1
     3     2     3    1
     4     2     5    1
     5     2     6    1
     6     3     4    1
     7     3    17    1
     8     4     7    1
     9     4    18    1
    10     4    19    1
    11     5     8    1
    12     5    20    1
    13     5    21    1
    14     6    22    1
    15     6    23    1
    16     6    24    1
    17     7    10    1
    18     7    25    1
    19     7    26    1
    20     8    11    2
    21     8    27    1
    22     9    11    1
    23     9    12    1
    24     9    14    1
    25     9    15    1
    26    10    13    2
    27    10    16    1
    28    11    28    1
    29    12    13    1
    30    12    29    1
    31    12    30    1
    32    13    31    1
    33    14    32    1
    34    14    33    1
    35    14    34    1
    36    15    35    1
    37    15    36    1
    38    15    37    1
    39    16    38    1
    40    16    39    1
    41    16    40    1
