@<TRIPOS>MOLECULE
IMPHY003434
 100 107 0 0 0
SMALL
GASTEIGER

@<TRIPOS>ATOM
      1 O          13.9862   -0.0925    0.0000 O.3     1  UNL1       -0.3409
      2 O           6.0075    2.5340    0.0000 O.3     1  UNL1       -0.3449
      3 O          14.4543   -2.8088    0.0000 O.3     1  UNL1       -0.3623
      4 O          15.0217   -0.2565    0.0000 O.3     1  UNL1       -0.3606
      5 O          16.2675   -0.8024    0.0000 O.3     1  UNL1       -0.3835
      6 O           4.2755    2.5407    0.0000 O.3     1  UNL1       -0.3461
      7 O           5.9998    0.5340    0.0000 O.3     1  UNL1       -0.3841
      8 O           4.2639   -0.4593    0.0000 O.3     1  UNL1       -0.3864
      9 O           2.5357    0.5474    0.0000 O.3     1  UNL1       -0.3869
     10 C           9.5376    0.5099    0.0000 C.3     1  UNL1       -0.0194
     11 C           8.6716    1.0099    0.0000 C.3     1  UNL1       -0.0193
     12 C           8.6714    0.0094    0.0000 C.3     1  UNL1       -0.0401
     13 C          10.4037    1.0099    0.0000 C.3     1  UNL1       -0.0288
     14 C          11.3137    0.5030    0.0000 C.3     1  UNL1       -0.0206
     15 C           8.6716    2.0099    0.0000 C.3     1  UNL1       -0.0273
     16 C          11.3217   -0.5386    0.0000 C.3     1  UNL1       -0.0208
     17 C           9.5216   -0.5316    0.0000 C.3     1  UNL1       -0.0460
     18 C           7.7777    0.4752    0.0000 C.3     1  UNL1       -0.0442
     19 C          10.4037    2.0099    0.0000 C.3     1  UNL1       -0.0489
     20 C          10.4196   -1.0594    0.0000 C.3     1  UNL1       -0.0462
     21 C           9.5376    2.5099    0.0000 C.3     1  UNL1       -0.0488
     22 C           7.7777    2.5445    0.0000 C.3     1  UNL1       -0.0052
     23 C          12.3097   -0.8484    0.0000 C.3     1  UNL1       -0.0036
     24 C          12.2968    0.8280    0.0000 C.3     1  UNL1       -0.0200
     25 C          12.9112   -0.0055    0.0000 C.3     1  UNL1        0.0663
     26 C           6.8716    0.9890    0.0000 C.3     1  UNL1       -0.0255
     27 C           6.8716    2.0307    0.0000 C.3     1  UNL1        0.0672
     28 C          11.3060    1.5030    0.0000 C.3     1  UNL1       -0.0587
     29 C          11.3294   -1.5386    0.0000 C.3     1  UNL1       -0.0587
     30 C          12.7417   -1.8367    0.0000 C.3     1  UNL1       -0.0067
     31 C           7.2877    3.4163    0.0000 C.3     1  UNL1       -0.0572
     32 C           8.2877    3.4047    0.0000 C.3     1  UNL1       -0.0572
     33 C          13.8144   -1.9485    0.0000 C.3     1  UNL1        0.1186
     34 C          14.4409   -1.0705    0.0000 C.3     1  UNL1        0.2240
     35 C          12.1515   -2.6439    0.0000 C.3     1  UNL1       -0.0595
     36 C          15.4626   -1.3958    0.0000 C.3     1  UNL1        0.1395
     37 C          15.4708   -2.4679    0.0000 C.3     1  UNL1        0.0954
     38 C           5.1396    2.0374    0.0000 C.3     1  UNL1        0.1878
     39 C          15.7880   -3.4163    0.0000 C.3     1  UNL1       -0.0334
     40 C          16.4708   -2.4593    0.0000 C.3     1  UNL1       -0.0334
     41 C           5.1357    1.0374    0.0000 C.3     1  UNL1        0.1341
     42 C           4.2678    0.5407    0.0000 C.3     1  UNL1        0.1137
     43 C           3.4075    2.0440    0.0000 C.3     1  UNL1        0.0792
     44 C           3.4037    1.0440    0.0000 C.3     1  UNL1        0.1069
     45 H           8.0608   -0.0982    0.0000 H       1  UNL1        0.0276
     46 H           8.8835   -0.5732    0.0000 H       1  UNL1        0.0276
     47 H          11.1365    1.4405    0.0000 H       1  UNL1        0.0312
     48 H           8.6782    2.8598    0.0000 H       1  UNL1        0.0312
     49 H           8.9124   -0.4161    0.0000 H       1  UNL1        0.0271
     50 H           9.3036   -1.1120    0.0000 H       1  UNL1        0.0271
     51 H           7.3840   -0.0038    0.0000 H       1  UNL1        0.0272
     52 H           8.1823    0.0054    0.0000 H       1  UNL1        0.0272
     53 H          11.0143    1.9022    0.0000 H       1  UNL1        0.0268
     54 H          10.6157    2.5925    0.0000 H       1  UNL1        0.0268
     55 H          10.0187   -1.5323    0.0000 H       1  UNL1        0.0271
     56 H          10.8169   -1.5354    0.0000 H       1  UNL1        0.0271
     57 H           9.9362    2.9848    0.0000 H       1  UNL1        0.0268
     58 H           9.1391    2.9848    0.0000 H       1  UNL1        0.0268
     59 H          11.7421   -1.4810    0.0000 H       1  UNL1        0.0335
     60 H          12.8318    1.1414    0.0000 H       1  UNL1        0.0296
     61 H          12.0414    1.3930    0.0000 H       1  UNL1        0.0296
     62 H          13.3248    0.7371    0.0000 H       1  UNL1        0.0600
     63 H           6.2608    1.0951    0.0000 H       1  UNL1        0.0290
     64 H           6.6626    0.4054    0.0000 H       1  UNL1        0.0290
     65 H           6.8752    2.6507    0.0000 H       1  UNL1        0.0602
     66 H          11.9259    1.5078    0.0000 H       1  UNL1        0.0235
     67 H          11.3012    2.1230    0.0000 H       1  UNL1        0.0235
     68 H          10.6860    1.4982    0.0000 H       1  UNL1        0.0235
     69 H          10.7094   -1.5433    0.0000 H       1  UNL1        0.0235
     70 H          11.3342   -2.1585    0.0000 H       1  UNL1        0.0235
     71 H          11.9494   -1.5338    0.0000 H       1  UNL1        0.0235
     72 H          12.9932   -2.4034    0.0000 H       1  UNL1        0.0328
     73 H           7.8282    3.7200    0.0000 H       1  UNL1        0.0236
     74 H           6.9840    3.9568    0.0000 H       1  UNL1        0.0236
     75 H           6.7472    3.1125    0.0000 H       1  UNL1        0.0236
     76 H           8.8210    3.0885    0.0000 H       1  UNL1        0.0236
     77 H           8.6038    3.9380    0.0000 H       1  UNL1        0.0236
     78 H           7.7544    3.7209    0.0000 H       1  UNL1        0.0236
     79 H          13.3939   -2.6872    0.0000 H       1  UNL1        0.0654
     80 H          11.6510   -2.2780    0.0000 H       1  UNL1        0.0233
     81 H          11.7855   -3.1444    0.0000 H       1  UNL1        0.0233
     82 H          12.6520   -3.0099    0.0000 H       1  UNL1        0.0233
     83 H          15.3617   -0.7840    0.0000 H       1  UNL1        0.0677
     84 H           5.1428    2.8874    0.0000 H       1  UNL1        0.0937
     85 H          14.7647    0.3077    0.0000 H       1  UNL1        0.2129
     86 H          15.2000   -3.6129    0.0000 H       1  UNL1        0.0258
     87 H          15.9846   -4.0043    0.0000 H       1  UNL1        0.0258
     88 H          16.3760   -3.2196    0.0000 H       1  UNL1        0.0258
     89 H          16.4761   -3.0793    0.0000 H       1  UNL1        0.0258
     90 H          17.0908   -2.4540    0.0000 H       1  UNL1        0.0258
     91 H          16.4655   -1.8394    0.0000 H       1  UNL1        0.0258
     92 H          16.8357   -1.0507    0.0000 H       1  UNL1        0.2101
     93 H           5.8735    1.4595    0.0000 H       1  UNL1        0.0671
     94 H           3.5300    0.1185    0.0000 H       1  UNL1        0.0647
     95 H           3.1977    2.6274    0.0000 H       1  UNL1        0.0587
     96 H           2.7966    1.9387    0.0000 H       1  UNL1        0.0587
     97 H           2.6692    1.4719    0.0000 H       1  UNL1        0.0643
     98 H           5.9974   -0.0860    0.0000 H       1  UNL1        0.2101
     99 H           3.7258   -0.7672    0.0000 H       1  UNL1        0.2100
    100 H           2.0000    0.8594    0.0000 H       1  UNL1        0.2100
@<TRIPOS>BOND
     1     1    25    1
     2     1    34    1
     3    27     2    1
     4     2    38    1
     5     3    33    1
     6     3    37    1
     7    34     4    1
     8     4    85    1
     9    36     5    1
    10     5    92    1
    11     6    38    1
    12     6    43    1
    13     7    41    1
    14     7    98    1
    15     8    42    1
    16     8    99    1
    17     9    44    1
    18     9   100    1
    19    10    11    1
    20    10    12    1
    21    10    13    1
    22    10    17    1
    23    11    12    1
    24    11    15    1
    25    11    18    1
    26    12    45    1
    27    12    46    1
    28    13    14    1
    29    13    19    1
    30    13    47    1
    31    14    16    1
    32    14    24    1
    33    14    28    1
    34    15    21    1
    35    15    22    1
    36    15    48    1
    37    16    20    1
    38    16    23    1
    39    16    29    1
    40    17    20    1
    41    17    49    1
    42    17    50    1
    43    18    26    1
    44    18    51    1
    45    18    52    1
    46    19    21    1
    47    19    53    1
    48    19    54    1
    49    20    55    1
    50    20    56    1
    51    21    57    1
    52    21    58    1
    53    22    27    1
    54    22    31    1
    55    22    32    1
    56    23    25    1
    57    23    30    1
    58    23    59    1
    59    24    25    1
    60    24    60    1
    61    24    61    1
    62    25    62    1
    63    26    27    1
    64    26    63    1
    65    26    64    1
    66    27    65    1
    67    28    66    1
    68    28    67    1
    69    28    68    1
    70    29    69    1
    71    29    70    1
    72    29    71    1
    73    30    33    1
    74    30    35    1
    75    30    72    1
    76    31    73    1
    77    31    74    1
    78    31    75    1
    79    32    76    1
    80    32    77    1
    81    32    78    1
    82    33    34    1
    83    33    79    1
    84    34    36    1
    85    35    80    1
    86    35    81    1
    87    35    82    1
    88    36    37    1
    89    36    83    1
    90    37    39    1
    91    37    40    1
    92    38    41    1
    93    38    84    1
    94    39    86    1
    95    39    87    1
    96    39    88    1
    97    40    89    1
    98    40    90    1
    99    40    91    1
   100    41    42    1
   101    41    93    1
   102    42    44    1
   103    42    94    1
   104    43    44    1
   105    43    95    1
   106    43    96    1
   107    44    97    1
