@<TRIPOS>MOLECULE
IMPHY011049
 52 54 0 0 0
SMALL
GASTEIGER

@<TRIPOS>ATOM
      1 C           3.8000   -0.3193    0.0000 C.3     1  UNL1       -0.0217
      2 C           3.8000   -1.3193    0.0000 C.3     1  UNL1       -0.0265
      3 C           2.9061   -1.8540    0.0000 C.3     1  UNL1       -0.0313
      4 C           4.6660    0.1807    0.0000 C.3     1  UNL1       -0.0102
      5 C           2.9061    0.2153    0.0000 C.3     1  UNL1       -0.0468
      6 C           2.0000   -1.3402    0.0000 C.3     1  UNL1       -0.0476
      7 C           4.6660   -1.8193    0.0000 C.3     1  UNL1       -0.0304
      8 C           2.0000   -0.2985    0.0000 C.3     1  UNL1       -0.0520
      9 C           3.8000    0.6807    0.0000 C.3     1  UNL1       -0.0587
     10 C           5.5321   -0.3193    0.0000 C.2     1  UNL1       -0.0477
     11 C           4.6500    1.2222    0.0000 C.3     1  UNL1       -0.0420
     12 C           5.5321   -1.3193    0.0000 C.2     1  UNL1       -0.0802
     13 C           2.4161   -2.7258    0.0000 C.3     1  UNL1       -0.0595
     14 C           3.4160   -2.7142    0.0000 C.3     1  UNL1       -0.0595
     15 C           5.5480    1.7499    0.0000 C.3     1  UNL1       -0.0306
     16 C           6.4421    0.1875    0.0000 C.2     1  UNL1       -0.0591
     17 C           6.4501    1.2291    0.0000 C.2     1  UNL1       -0.0667
     18 C           7.3180    1.7258    0.0000 C.3     1  UNL1       -0.0253
     19 C           7.3219    2.7258    0.0000 C.3     1  UNL1       -0.0589
     20 C           8.1821    1.2224    0.0000 C.3     1  UNL1       -0.0589
     21 H           3.8066   -2.1693    0.0000 H       1  UNL1        0.0314
     22 H           5.3989    0.6113    0.0000 H       1  UNL1        0.0354
     23 H           3.3107    0.6851    0.0000 H       1  UNL1        0.0271
     24 H           2.5124    0.6943    0.0000 H       1  UNL1        0.0271
     25 H           1.3891   -1.2341    0.0000 H       1  UNL1        0.0271
     26 H           1.7909   -1.9238    0.0000 H       1  UNL1        0.0271
     27 H           4.2675   -2.2943    0.0000 H       1  UNL1        0.0311
     28 H           5.0646   -2.2943    0.0000 H       1  UNL1        0.0311
     29 H           1.7909    0.2852    0.0000 H       1  UNL1        0.0266
     30 H           1.3891   -0.4046    0.0000 H       1  UNL1        0.0266
     31 H           4.4200    0.6807    0.0000 H       1  UNL1        0.0235
     32 H           3.8000    1.3007    0.0000 H       1  UNL1        0.0235
     33 H           3.1800    0.6807    0.0000 H       1  UNL1        0.0235
     34 H           4.4319    1.8026    0.0000 H       1  UNL1        0.0274
     35 H           4.0408    1.1067    0.0000 H       1  UNL1        0.0274
     36 H           6.0690   -1.6293    0.0000 H       1  UNL1        0.0575
     37 H           1.8756   -2.4220    0.0000 H       1  UNL1        0.0235
     38 H           2.1123   -3.2662    0.0000 H       1  UNL1        0.0235
     39 H           2.9566   -3.0295    0.0000 H       1  UNL1        0.0235
     40 H           2.8827   -3.0304    0.0000 H       1  UNL1        0.0235
     41 H           3.7322   -3.2475    0.0000 H       1  UNL1        0.0235
     42 H           3.9494   -2.3980    0.0000 H       1  UNL1        0.0235
     43 H           5.9453    2.2259    0.0000 H       1  UNL1        0.0310
     44 H           5.1470    2.2228    0.0000 H       1  UNL1        0.0310
     45 H           6.9754   -0.1287    0.0000 H       1  UNL1        0.0620
     46 H           7.8562    2.0337    0.0000 H       1  UNL1        0.0340
     47 H           7.9419    2.7234    0.0000 H       1  UNL1        0.0235
     48 H           7.3243    3.3458    0.0000 H       1  UNL1        0.0235
     49 H           6.7019    2.7281    0.0000 H       1  UNL1        0.0235
     50 H           7.8701    0.6867    0.0000 H       1  UNL1        0.0235
     51 H           8.7179    0.9104    0.0000 H       1  UNL1        0.0235
     52 H           8.4942    1.7582    0.0000 H       1  UNL1        0.0235
@<TRIPOS>BOND
     1     1     2    1
     2     1     4    1
     3     1     5    1
     4     1     9    1
     5     2     3    1
     6     2     7    1
     7     2    21    1
     8     3     6    1
     9     3    13    1
    10     3    14    1
    11     4    10    1
    12     4    11    1
    13     4    22    1
    14     5     8    1
    15     5    23    1
    16     5    24    1
    17     6     8    1
    18     6    25    1
    19     6    26    1
    20     7    12    1
    21     7    27    1
    22     7    28    1
    23     8    29    1
    24     8    30    1
    25     9    31    1
    26     9    32    1
    27     9    33    1
    28    10    12    2
    29    10    16    1
    30    11    15    1
    31    11    34    1
    32    11    35    1
    33    12    36    1
    34    13    37    1
    35    13    38    1
    36    13    39    1
    37    14    40    1
    38    14    41    1
    39    14    42    1
    40    15    17    1
    41    15    43    1
    42    15    44    1
    43    16    17    2
    44    16    45    1
    45    17    18    1
    46    18    19    1
    47    18    20    1
    48    18    46    1
    49    19    47    1
    50    19    48    1
    51    19    49    1
    52    20    50    1
    53    20    51    1
    54    20    52    1
