@<TRIPOS>MOLECULE
IMPHY002410
 79 85 0 0 0
SMALL
GASTEIGER

@<TRIPOS>ATOM
      1 O           8.0355    3.2920    0.0000 O.3     1  UNL1       -0.3852
      2 O           7.6291    4.5517    0.0000 O.3     1  UNL1       -0.3889
      3 O           9.7908   -1.8901    0.0000 O.3     1  UNL1       -0.3407
      4 O          11.6575   -0.8124    0.0000 O.3     1  UNL1       -0.3369
      5 O           8.6249   -0.9418    0.0000 O.2     1  UNL1       -0.3004
      6 O           3.1083    1.9911    0.0000 O.3     1  UNL1       -0.4571
      7 O          10.7088   -3.5699    0.0000 O.3     1  UNL1       -0.3435
      8 O          12.5319   -1.3974    0.0000 O.3     1  UNL1       -0.3589
      9 O          13.5134   -1.9373    0.0000 O.3     1  UNL1       -0.3862
     10 O           2.0000    3.3865    0.0000 O.2     1  UNL1       -0.2456
     11 C           7.1656    2.7986    0.0000 C.3     1  UNL1        0.1007
     12 C           8.0596    2.2640    0.0000 C.3     1  UNL1       -0.0054
     13 C           6.2596    2.2848    0.0000 C.3     1  UNL1        0.0061
     14 C           8.0596    1.2640    0.0000 C.3     1  UNL1       -0.0231
     15 C           8.9256    0.7640    0.0000 C.3     1  UNL1        0.0344
     16 C           9.7916    1.2640    0.0000 C.3     1  UNL1       -0.0262
     17 C           5.4972    2.9856    0.0000 C.3     1  UNL1       -0.0057
     18 C           6.2596    1.2432    0.0000 C.3     1  UNL1       -0.0441
     19 C           7.1656    0.7293    0.0000 C.3     1  UNL1       -0.0484
     20 C           6.9555    3.8126    0.0000 C.3     1  UNL1        0.0852
     21 C           8.9256    2.7640    0.0000 C.3     1  UNL1       -0.0469
     22 C           9.7916    2.2640    0.0000 C.3     1  UNL1       -0.0489
     23 C           5.9265    3.9278    0.0000 C.3     1  UNL1       -0.0169
     24 C           8.9095   -0.2775    0.0000 C.3     1  UNL1       -0.0114
     25 C          10.7016    0.7571    0.0000 C.3     1  UNL1       -0.0203
     26 C           5.3897    1.7915    0.0000 C.3     1  UNL1       -0.0563
     27 C           9.8076   -0.8053    0.0000 C.3     1  UNL1        0.0890
     28 C          10.7096   -0.2845    0.0000 C.3     1  UNL1        0.0887
     29 C           8.2828   -0.0020    0.0000 C.2     1  UNL1        0.1270
     30 C           4.5172    2.7869    0.0000 C.2     1  UNL1       -0.0221
     31 C          11.6659   -1.8974    0.0000 C.3     1  UNL1        0.2469
     32 C           4.1018    1.8772    0.0000 C.3     1  UNL1        0.1147
     33 C          10.7263   -2.4399    0.0000 C.3     1  UNL1        0.2170
     34 C           3.7804    3.4630    0.0000 C.2     1  UNL1        0.0252
     35 C          12.6532   -2.4473    0.0000 C.3     1  UNL1        0.1162
     36 C           2.9097    2.9712    0.0000 C.2     1  UNL1        0.3323
     37 C          12.6620   -3.5774    0.0000 C.3     1  UNL1        0.0046
     38 C          11.6832   -4.1425    0.0000 C.3     1  UNL1        0.0616
     39 C          11.6793   -5.1425    0.0000 C.3     1  UNL1       -0.0385
     40 H           8.7957    1.8390    0.0000 H       1  UNL1        0.0332
     41 H           8.0661    0.4140    0.0000 H       1  UNL1        0.0314
     42 H          10.5244    1.6946    0.0000 H       1  UNL1        0.0311
     43 H           5.1114    3.4709    0.0000 H       1  UNL1        0.0354
     44 H           5.6487    1.3493    0.0000 H       1  UNL1        0.0272
     45 H           6.0505    0.6595    0.0000 H       1  UNL1        0.0272
     46 H           6.7720    0.2503    0.0000 H       1  UNL1        0.0268
     47 H           7.5702    0.2595    0.0000 H       1  UNL1        0.0268
     48 H           6.7370    4.3928    0.0000 H       1  UNL1        0.0622
     49 H           9.3241    3.2389    0.0000 H       1  UNL1        0.0269
     50 H           8.5271    3.2389    0.0000 H       1  UNL1        0.0269
     51 H          10.4022    2.1563    0.0000 H       1  UNL1        0.0268
     52 H          10.0037    2.8466    0.0000 H       1  UNL1        0.0268
     53 H           6.0599    4.5333    0.0000 H       1  UNL1        0.0297
     54 H           5.3384    4.1242    0.0000 H       1  UNL1        0.0297
     55 H           8.3004   -0.1620    0.0000 H       1  UNL1        0.0300
     56 H           8.6915   -0.8579    0.0000 H       1  UNL1        0.0300
     57 H          11.3133    0.6558    0.0000 H       1  UNL1        0.0294
     58 H          10.9062    1.3424    0.0000 H       1  UNL1        0.0294
     59 H           5.0838    2.3308    0.0000 H       1  UNL1        0.0236
     60 H           4.8504    1.4856    0.0000 H       1  UNL1        0.0236
     61 H           5.6956    1.2522    0.0000 H       1  UNL1        0.0236
     62 H           9.0666   -1.2217    0.0000 H       1  UNL1        0.0623
     63 H          11.4408    0.1490    0.0000 H       1  UNL1        0.0623
     64 H           7.6722    0.1057    0.0000 H       1  UNL1        0.1032
     65 H           8.0402    3.9119    0.0000 H       1  UNL1        0.2103
     66 H           7.4410    5.1425    0.0000 H       1  UNL1        0.2099
     67 H           3.9672    1.2720    0.0000 H       1  UNL1        0.0746
     68 H           4.6896    1.6801    0.0000 H       1  UNL1        0.0746
     69 H           9.9853   -2.8563    0.0000 H       1  UNL1        0.0967
     70 H           3.8510    4.0790    0.0000 H       1  UNL1        0.0689
     71 H          13.1931   -2.7521    0.0000 H       1  UNL1        0.0650
     72 H          12.8755   -4.1595    0.0000 H       1  UNL1        0.0317
     73 H          13.2720   -3.4666    0.0000 H       1  UNL1        0.0317
     74 H          11.1445   -4.4494    0.0000 H       1  UNL1        0.0595
     75 H          12.5319   -0.7774    0.0000 H       1  UNL1        0.2130
     76 H          14.0539   -2.2411    0.0000 H       1  UNL1        0.2100
     77 H          11.0594   -5.1401    0.0000 H       1  UNL1        0.0255
     78 H          11.6770   -5.7625    0.0000 H       1  UNL1        0.0255
     79 H          12.2993   -5.1449    0.0000 H       1  UNL1        0.0255
@<TRIPOS>BOND
     1    11     1    1
     2     1    65    1
     3    20     2    1
     4     2    66    1
     5     3    27    1
     6     3    33    1
     7     4    28    1
     8     4    31    1
     9     5    29    2
    10     6    32    1
    11     6    36    1
    12     7    33    1
    13     7    38    1
    14    31     8    1
    15     8    75    1
    16    35     9    1
    17     9    76    1
    18    10    36    2
    19    11    12    1
    20    11    13    1
    21    11    20    1
    22    12    14    1
    23    12    21    1
    24    12    40    1
    25    13    17    1
    26    13    18    1
    27    13    26    1
    28    14    15    1
    29    14    19    1
    30    14    41    1
    31    15    16    1
    32    15    24    1
    33    15    29    1
    34    16    22    1
    35    16    25    1
    36    16    42    1
    37    17    23    1
    38    17    30    1
    39    17    43    1
    40    18    19    1
    41    18    44    1
    42    18    45    1
    43    19    46    1
    44    19    47    1
    45    20    23    1
    46    20    48    1
    47    21    22    1
    48    21    49    1
    49    21    50    1
    50    22    51    1
    51    22    52    1
    52    23    53    1
    53    23    54    1
    54    24    27    1
    55    24    55    1
    56    24    56    1
    57    25    28    1
    58    25    57    1
    59    25    58    1
    60    26    59    1
    61    26    60    1
    62    26    61    1
    63    27    28    1
    64    27    62    1
    65    28    63    1
    66    29    64    1
    67    30    32    1
    68    30    34    2
    69    31    33    1
    70    31    35    1
    71    32    67    1
    72    32    68    1
    73    33    69    1
    74    34    36    1
    75    34    70    1
    76    35    37    1
    77    35    71    1
    78    37    38    1
    79    37    72    1
    80    37    73    1
    81    38    39    1
    82    38    74    1
    83    39    77    1
    84    39    78    1
    85    39    79    1
