@<TRIPOS>MOLECULE
IMPHY008015
 31 32 0 0 0
SMALL
GASTEIGER

@<TRIPOS>ATOM
      1 C           2.8660   -0.5843    0.0000 C.3     1  UNL1       -0.0096
      2 C           2.0000   -0.0843    0.0000 C.3     1  UNL1       -0.0436
      3 C           3.7320   -0.0843    0.0000 C.ar    1  UNL1       -0.0385
      4 C           2.0000    0.9157    0.0000 C.3     1  UNL1       -0.0483
      5 C           2.8660    1.4157    0.0000 C.3     1  UNL1       -0.0274
      6 C           3.7320    0.9157    0.0000 C.ar    1  UNL1       -0.0434
      7 C           2.3660   -1.4503    0.0000 C.3     1  UNL1       -0.0558
      8 C           3.3660   -1.4503    0.0000 C.3     1  UNL1       -0.0558
      9 C           4.6260   -0.6190    0.0000 C.ar    1  UNL1       -0.0576
     10 C           4.6260    1.4503    0.0000 C.ar    1  UNL1       -0.0554
     11 C           5.5321    0.9365    0.0000 C.ar    1  UNL1       -0.0502
     12 C           5.5321   -0.1051    0.0000 C.ar    1  UNL1       -0.0585
     13 C           6.3961    1.4398    0.0000 C.3     1  UNL1       -0.0397
     14 H           1.3894    0.0233    0.0000 H       1  UNL1        0.0274
     15 H           1.7880   -0.6669    0.0000 H       1  UNL1        0.0274
     16 H           1.7880    1.4983    0.0000 H       1  UNL1        0.0269
     17 H           1.3894    0.8080    0.0000 H       1  UNL1        0.0269
     18 H           3.2646    1.8906    0.0000 H       1  UNL1        0.0313
     19 H           2.4675    1.8906    0.0000 H       1  UNL1        0.0313
     20 H           1.8291   -1.1403    0.0000 H       1  UNL1        0.0238
     21 H           2.0560   -1.9873    0.0000 H       1  UNL1        0.0238
     22 H           2.9030   -1.7603    0.0000 H       1  UNL1        0.0238
     23 H           2.8291   -1.7603    0.0000 H       1  UNL1        0.0238
     24 H           3.6760   -1.9873    0.0000 H       1  UNL1        0.0238
     25 H           3.9030   -1.1403    0.0000 H       1  UNL1        0.0238
     26 H           4.6188   -1.2389    0.0000 H       1  UNL1        0.0621
     27 H           4.6188    2.0703    0.0000 H       1  UNL1        0.0623
     28 H           6.0678   -0.4172    0.0000 H       1  UNL1        0.0620
     29 H           6.7082    0.9041    0.0000 H       1  UNL1        0.0278
     30 H           6.9319    1.7519    0.0000 H       1  UNL1        0.0278
     31 H           6.0841    1.9756    0.0000 H       1  UNL1        0.0278
@<TRIPOS>BOND
     1     1     2    1
     2     1     3    1
     3     1     7    1
     4     1     8    1
     5     2     4    1
     6     2    14    1
     7     2    15    1
     8     3     6   ar
     9     3     9   ar
    10     4     5    1
    11     4    16    1
    12     4    17    1
    13     5     6    1
    14     5    18    1
    15     5    19    1
    16     6    10   ar
    17     7    20    1
    18     7    21    1
    19     7    22    1
    20     8    23    1
    21     8    24    1
    22     8    25    1
    23     9    12   ar
    24     9    26    1
    25    10    11   ar
    26    10    27    1
    27    11    12   ar
    28    11    13    1
    29    12    28    1
    30    13    29    1
    31    13    30    1
    32    13    31    1
