@<TRIPOS>MOLECULE
IMPHY007096
 96 101 0 0 0
SMALL
GASTEIGER

@<TRIPOS>ATOM
      1 O           6.7852    1.8346    0.0000 O.3     1  UNL1       -0.3585
      2 O           9.5679    0.9655    0.0000 O.3     1  UNL1       -0.4581
      3 O           5.1720    0.4320    0.0000 O.3     1  UNL1       -0.3888
      4 O           5.1643    2.4320    0.0000 O.3     1  UNL1       -0.3858
      5 O           8.6084    3.4888    0.0000 O.3     1  UNL1       -0.4464
      6 O           6.8896    4.1707    0.0000 O.3     1  UNL1       -0.4659
      7 O           5.3930    3.2989    0.0000 O.2     1  UNL1       -0.2475
      8 O          10.4016    2.5180    0.0000 O.2     1  UNL1       -0.2466
      9 O           6.8671   -3.7582    0.0000 O.2     1  UNL1       -0.4574
     10 O           5.0597   -2.7054    0.0000 O.2     1  UNL1       -0.2888
     11 O          10.3396    3.5429    0.0000 O.2     1  UNL1       -0.2456
     12 O           5.1350   -3.7582    0.0000 O.3     1  UNL1       -0.3313
     13 O           6.8671   -5.7582    0.0000 O.3     1  UNL1       -0.3829
     14 O           5.1350   -6.7582    0.0000 O.3     1  UNL1       -0.3864
     15 O           3.4030   -5.7582    0.0000 O.3     1  UNL1       -0.3865
     16 O           2.5369   -4.2582    0.0000 O.3     1  UNL1       -0.3924
     17 C           7.7681    0.9420    0.0000 C.3     1  UNL1        0.0468
     18 C           6.9040    0.4386    0.0000 C.3     1  UNL1        0.0055
     19 C           7.7643    1.9420    0.0000 C.3     1  UNL1        0.0603
     20 C           6.8920   -0.6029    0.0000 C.3     1  UNL1       -0.0123
     21 C           6.8963    2.4386    0.0000 C.3     1  UNL1        0.2007
     22 C           8.6801    0.4386    0.0000 C.3     1  UNL1        0.1123
     23 C           6.0361    0.9353    0.0000 C.3     1  UNL1        0.0884
     24 C           7.7920   -1.1272    0.0000 C.3     1  UNL1       -0.0068
     25 C           7.1879    1.1433    0.0000 C.3     1  UNL1        0.0591
     26 C           6.0322    1.9353    0.0000 C.3     1  UNL1        0.1210
     27 C           8.6921   -0.6029    0.0000 C.3     1  UNL1       -0.0079
     28 C           8.6397    2.4893    0.0000 C.3     1  UNL1        0.2059
     29 C           5.9421   -1.1272    0.0000 C.3     1  UNL1        0.0198
     30 C           5.9079   -0.4255    0.0000 C.3     1  UNL1       -0.0583
     31 C           7.8046   -2.2121    0.0000 C.2     1  UNL1       -0.0237
     32 C           6.3930    3.3027    0.0000 C.2     1  UNL1        0.3423
     33 C           9.5476    1.9977    0.0000 C.2     1  UNL1        0.3491
     34 C           5.9295   -2.2121    0.0000 C.2     1  UNL1        0.1979
     35 C           6.8671   -2.7582    0.0000 C.2     1  UNL1        0.1654
     36 C           8.6744   -2.7054    0.0000 C.3     1  UNL1       -0.0397
     37 C           9.4584    4.0156    0.0000 C.2     1  UNL1        0.3327
     38 C           6.3863    5.0348    0.0000 C.3     1  UNL1        0.0818
     39 C           6.0010   -4.2582    0.0000 C.3     1  UNL1        0.2309
     40 C           9.4272    5.0151    0.0000 C.2     1  UNL1        0.0217
     41 C           6.0010   -5.2582    0.0000 C.3     1  UNL1        0.1454
     42 C           5.1350   -5.7582    0.0000 C.3     1  UNL1        0.1152
     43 C           4.2690   -4.2582    0.0000 C.3     1  UNL1        0.1140
     44 C          10.2771    5.5419    0.0000 C.2     1  UNL1       -0.0633
     45 C           4.2690   -5.2582    0.0000 C.3     1  UNL1        0.1120
     46 C          10.2459    6.5414    0.0000 C.3     1  UNL1       -0.0253
     47 C           3.4030   -3.7582    0.0000 C.3     1  UNL1        0.0731
     48 C          11.1584    5.0692    0.0000 C.3     1  UNL1       -0.0430
     49 C          11.0959    7.0682    0.0000 C.3     1  UNL1       -0.0590
     50 C           9.3647    7.0141    0.0000 C.3     1  UNL1       -0.0590
     51 H           6.1696    0.0108    0.0000 H       1  UNL1        0.0339
     52 H           8.6143    1.9452    0.0000 H       1  UNL1        0.0384
     53 H           9.4212    0.0223    0.0000 H       1  UNL1        0.0740
     54 H           5.4980    1.2432    0.0000 H       1  UNL1        0.0623
     55 H           8.5314   -1.5465    0.0000 H       1  UNL1        0.0353
     56 H           6.5857    0.9958    0.0000 H       1  UNL1        0.0567
     57 H           7.1589    0.5240    0.0000 H       1  UNL1        0.0567
     58 H           6.0298    2.5553    0.0000 H       1  UNL1        0.0654
     59 H           8.9079   -1.1842    0.0000 H       1  UNL1        0.0307
     60 H           9.3017   -0.4898    0.0000 H       1  UNL1        0.0307
     61 H           8.0928    2.7813    0.0000 H       1  UNL1        0.0857
     62 H           5.7398   -0.5411    0.0000 H       1  UNL1        0.0352
     63 H           5.3300   -1.2262    0.0000 H       1  UNL1        0.0352
     64 H           6.0179    0.1847    0.0000 H       1  UNL1        0.0235
     65 H           5.2977   -0.3155    0.0000 H       1  UNL1        0.0235
     66 H           5.7978   -1.0356    0.0000 H       1  UNL1        0.0235
     67 H           4.6339    0.7399    0.0000 H       1  UNL1        0.2099
     68 H           4.6286    2.1199    0.0000 H       1  UNL1        0.2100
     69 H           8.3686   -3.2447    0.0000 H       1  UNL1        0.0276
     70 H           9.2138   -3.0113    0.0000 H       1  UNL1        0.0276
     71 H           8.9803   -2.1661    0.0000 H       1  UNL1        0.0276
     72 H           6.9220    5.3468    0.0000 H       1  UNL1        0.0661
     73 H           6.0742    5.5705    0.0000 H       1  UNL1        0.0661
     74 H           5.8506    4.7227    0.0000 H       1  UNL1        0.0661
     75 H           6.0010   -3.6382    0.0000 H       1  UNL1        0.1084
     76 H           8.8808    5.3082    0.0000 H       1  UNL1        0.0688
     77 H           6.0010   -5.8782    0.0000 H       1  UNL1        0.0683
     78 H           4.5981   -6.0682    0.0000 H       1  UNL1        0.0648
     79 H           4.2690   -3.6382    0.0000 H       1  UNL1        0.0647
     80 H           4.2690   -5.8782    0.0000 H       1  UNL1        0.0647
     81 H           6.8671   -6.3782    0.0000 H       1  UNL1        0.2102
     82 H          10.7923    6.2484    0.0000 H       1  UNL1        0.0340
     83 H           3.8015   -3.2833    0.0000 H       1  UNL1        0.0584
     84 H           3.0044   -3.2833    0.0000 H       1  UNL1        0.0584
     85 H          10.8653    4.5228    0.0000 H       1  UNL1        0.0275
     86 H          11.7047    4.7762    0.0000 H       1  UNL1        0.0275
     87 H          11.4514    5.6156    0.0000 H       1  UNL1        0.0275
     88 H           4.5981   -7.0682    0.0000 H       1  UNL1        0.2100
     89 H           3.4030   -6.3782    0.0000 H       1  UNL1        0.2100
     90 H          11.4225    6.5412    0.0000 H       1  UNL1        0.0235
     91 H          11.6229    7.3949    0.0000 H       1  UNL1        0.0235
     92 H          10.7692    7.5952    0.0000 H       1  UNL1        0.0235
     93 H           9.6577    7.5605    0.0000 H       1  UNL1        0.0235
     94 H           8.8183    7.3072    0.0000 H       1  UNL1        0.0235
     95 H           9.0716    6.4678    0.0000 H       1  UNL1        0.0235
     96 H           2.0000   -3.9482    0.0000 H       1  UNL1        0.2095
@<TRIPOS>BOND
     1     1    21    1
     2     1    25    1
     3     2    22    1
     4     2    33    1
     5    23     3    1
     6     3    67    1
     7    26     4    1
     8     4    68    1
     9    28     5    1
    10     5    37    1
    11     6    32    1
    12     6    38    1
    13     7    32    2
    14     8    33    2
    15     9    35    1
    16    39     9    1
    17    10    34    2
    18    11    37    2
    19    12    39    1
    20    12    43    1
    21    41    13    1
    22    13    81    1
    23    42    14    1
    24    14    88    1
    25    45    15    1
    26    15    89    1
    27    16    47    1
    28    16    96    1
    29    17    18    1
    30    17    19    1
    31    17    22    1
    32    17    25    1
    33    18    20    1
    34    18    23    1
    35    18    51    1
    36    19    21    1
    37    19    28    1
    38    19    52    1
    39    20    24    1
    40    20    29    1
    41    20    30    1
    42    21    26    1
    43    21    32    1
    44    22    27    1
    45    22    53    1
    46    23    26    1
    47    23    54    1
    48    24    27    1
    49    24    31    1
    50    24    55    1
    51    25    56    1
    52    25    57    1
    53    26    58    1
    54    27    59    1
    55    27    60    1
    56    28    33    1
    57    28    61    1
    58    29    34    1
    59    29    62    1
    60    29    63    1
    61    30    64    1
    62    30    65    1
    63    30    66    1
    64    31    35    2
    65    31    36    1
    66    34    35    1
    67    36    69    1
    68    36    70    1
    69    36    71    1
    70    37    40    1
    71    38    72    1
    72    38    73    1
    73    38    74    1
    74    39    41    1
    75    39    75    1
    76    40    44    2
    77    40    76    1
    78    41    42    1
    79    41    77    1
    80    42    45    1
    81    42    78    1
    82    43    45    1
    83    43    47    1
    84    43    79    1
    85    44    46    1
    86    44    48    1
    87    45    80    1
    88    46    49    1
    89    46    50    1
    90    46    82    1
    91    47    83    1
    92    47    84    1
    93    48    85    1
    94    48    86    1
    95    48    87    1
    96    49    90    1
    97    49    91    1
    98    49    92    1
    99    50    93    1
   100    50    94    1
   101    50    95    1
