@<TRIPOS>MOLECULE
IMPHY016758
 32 31 0 0 0
SMALL
GASTEIGER

@<TRIPOS>ATOM
      1 O           5.1350   -0.7500    0.0000 O.2     1  UNL1       -0.2973
      2 O           2.5369    0.7500    0.0000 O.3     1  UNL1       -0.3946
      3 C           7.7331    0.7500    0.0000 C.3     1  UNL1       -0.0527
      4 C           8.5991    0.2500    0.0000 C.3     1  UNL1       -0.0531
      5 C           6.8671    0.2500    0.0000 C.3     1  UNL1       -0.0464
      6 C           9.4651    0.7500    0.0000 C.3     1  UNL1       -0.0533
      7 C           6.0010    0.7500    0.0000 C.3     1  UNL1        0.0059
      8 C          10.3312    0.2500    0.0000 C.3     1  UNL1       -0.0559
      9 C           5.1350    0.2500    0.0000 C.2     1  UNL1        0.1355
     10 C           4.2690    0.7500    0.0000 C.3     1  UNL1        0.0290
     11 C          11.1972    0.7500    0.0000 C.3     1  UNL1       -0.0653
     12 C           3.4030    0.2500    0.0000 C.3     1  UNL1        0.0509
     13 H           8.1316    1.2250    0.0000 H       1  UNL1        0.0265
     14 H           7.3346    1.2250    0.0000 H       1  UNL1        0.0265
     15 H           8.2006   -0.2249    0.0000 H       1  UNL1        0.0265
     16 H           8.9976   -0.2249    0.0000 H       1  UNL1        0.0265
     17 H           6.4685   -0.2249    0.0000 H       1  UNL1        0.0269
     18 H           7.2656   -0.2249    0.0000 H       1  UNL1        0.0269
     19 H           9.8637    1.2250    0.0000 H       1  UNL1        0.0265
     20 H           9.0666    1.2250    0.0000 H       1  UNL1        0.0265
     21 H           6.3996    1.2250    0.0000 H       1  UNL1        0.0342
     22 H           5.6025    1.2250    0.0000 H       1  UNL1        0.0342
     23 H           9.9326   -0.2249    0.0000 H       1  UNL1        0.0263
     24 H          10.7297   -0.2249    0.0000 H       1  UNL1        0.0263
     25 H           4.6675    1.2250    0.0000 H       1  UNL1        0.0364
     26 H           3.8705    1.2250    0.0000 H       1  UNL1        0.0364
     27 H          11.5072    0.2131    0.0000 H       1  UNL1        0.0230
     28 H          11.7341    1.0600    0.0000 H       1  UNL1        0.0230
     29 H          10.8872    1.2869    0.0000 H       1  UNL1        0.0230
     30 H           3.0044   -0.2249    0.0000 H       1  UNL1        0.0561
     31 H           3.8015   -0.2249    0.0000 H       1  UNL1        0.0561
     32 H           2.0000    0.4400    0.0000 H       1  UNL1        0.2094
@<TRIPOS>BOND
     1     1     9    2
     2     2    12    1
     3     2    32    1
     4     3     4    1
     5     3     5    1
     6     3    13    1
     7     3    14    1
     8     4     6    1
     9     4    15    1
    10     4    16    1
    11     5     7    1
    12     5    17    1
    13     5    18    1
    14     6     8    1
    15     6    19    1
    16     6    20    1
    17     7     9    1
    18     7    21    1
    19     7    22    1
    20     8    11    1
    21     8    23    1
    22     8    24    1
    23     9    10    1
    24    10    12    1
    25    10    25    1
    26    10    26    1
    27    11    27    1
    28    11    28    1
    29    11    29    1
    30    12    30    1
    31    12    31    1
