@<TRIPOS>MOLECULE
IMPHY002591
 47 49 0 0 0
SMALL
GASTEIGER

@<TRIPOS>ATOM
      1 O           6.3580   -0.2693    0.0000 O.2     1  UNL1       -0.4543
      2 O           4.5981    2.7654    0.0000 O.3     1  UNL1       -0.4905
      3 O           2.8660    1.7654    0.0000 O.3     1  UNL1       -0.4885
      4 O           2.8660   -0.2346    0.0000 O.3     1  UNL1       -0.4912
      5 O           6.3465    2.8000    0.0000 O.2     1  UNL1       -0.2869
      6 O           8.9846   -2.7621    0.0000 O.3     1  UNL1       -0.4914
      7 O          10.7205   -1.7688    0.0000 O.3     1  UNL1       -0.4915
      8 C           5.4641    1.2654    0.0000 C.ar    1  UNL1        0.1093
      9 C           5.4641    0.2654    0.0000 C.ar    1  UNL1        0.1465
     10 C           7.2641    0.2446    0.0000 C.ar    1  UNL1        0.1393
     11 C           4.5981    1.7654    0.0000 C.ar    1  UNL1        0.1795
     12 C           6.3580    1.8001    0.0000 C.ar    1  UNL1        0.1967
     13 C           8.1282   -0.2587    0.0000 C.ar    1  UNL1        0.0211
     14 C           3.7320    1.2654    0.0000 C.ar    1  UNL1        0.2045
     15 C           4.5981   -0.2346    0.0000 C.ar    1  UNL1        0.0270
     16 C           7.2641    1.2862    0.0000 C.ar    1  UNL1        0.0288
     17 C           3.7320    0.2654    0.0000 C.ar    1  UNL1        0.1687
     18 C           8.1244   -1.2587    0.0000 C.ar    1  UNL1       -0.0056
     19 C           8.9962    0.2379    0.0000 C.ar    1  UNL1       -0.0474
     20 C           8.9884   -1.7621    0.0000 C.ar    1  UNL1        0.1622
     21 C           9.8564   -1.2654    0.0000 C.ar    1  UNL1        0.1615
     22 C           9.8602   -0.2654    0.0000 C.ar    1  UNL1       -0.0156
     23 C           3.7320    3.2654    0.0000 C.3     1  UNL1        0.0790
     24 C           2.0000    1.2654    0.0000 C.3     1  UNL1        0.0791
     25 C           2.8660   -1.2346    0.0000 C.3     1  UNL1        0.0790
     26 C           9.8487   -3.2654    0.0000 C.3     1  UNL1        0.0790
     27 C          11.5884   -1.2721    0.0000 C.3     1  UNL1        0.0790
     28 H           4.5981   -0.8546    0.0000 H       1  UNL1        0.0692
     29 H           7.7998    1.5983    0.0000 H       1  UNL1        0.0693
     30 H           7.5862   -1.5667    0.0000 H       1  UNL1        0.0662
     31 H           8.9985    0.8579    0.0000 H       1  UNL1        0.0626
     32 H          10.3984    0.0425    0.0000 H       1  UNL1        0.0655
     33 H           4.0420    3.8023    0.0000 H       1  UNL1        0.0660
     34 H           3.1951    3.5754    0.0000 H       1  UNL1        0.0660
     35 H           3.4220    2.7285    0.0000 H       1  UNL1        0.0660
     36 H           1.6900    1.8023    0.0000 H       1  UNL1        0.0660
     37 H           1.4631    0.9554    0.0000 H       1  UNL1        0.0660
     38 H           2.3100    0.7285    0.0000 H       1  UNL1        0.0660
     39 H           2.2460   -1.2346    0.0000 H       1  UNL1        0.0660
     40 H           2.8660   -1.8546    0.0000 H       1  UNL1        0.0660
     41 H           3.4860   -1.2346    0.0000 H       1  UNL1        0.0660
     42 H           9.5366   -3.8011    0.0000 H       1  UNL1        0.0660
     43 H          10.3844   -3.5775    0.0000 H       1  UNL1        0.0660
     44 H          10.1607   -2.7297    0.0000 H       1  UNL1        0.0660
     45 H          11.8964   -1.8102    0.0000 H       1  UNL1        0.0660
     46 H          12.1266   -0.9642    0.0000 H       1  UNL1        0.0660
     47 H          11.2805   -0.7340    0.0000 H       1  UNL1        0.0660
@<TRIPOS>BOND
     1     1     9   ar
     2     1    10   ar
     3     2    11    1
     4     2    23    1
     5     3    14    1
     6     3    24    1
     7     4    17    1
     8     4    25    1
     9     5    12    2
    10     6    20    1
    11     6    26    1
    12     7    21    1
    13     7    27    1
    14     8     9   ar
    15     8    11   ar
    16     8    12   ar
    17     9    15   ar
    18    10    13    1
    19    10    16   ar
    20    11    14   ar
    21    12    16   ar
    22    13    18   ar
    23    13    19   ar
    24    14    17   ar
    25    15    17   ar
    26    15    28    1
    27    16    29    1
    28    18    20   ar
    29    18    30    1
    30    19    22   ar
    31    19    31    1
    32    20    21   ar
    33    21    22   ar
    34    22    32    1
    35    23    33    1
    36    23    34    1
    37    23    35    1
    38    24    36    1
    39    24    37    1
    40    24    38    1
    41    25    39    1
    42    25    40    1
    43    25    41    1
    44    26    42    1
    45    26    43    1
    46    26    44    1
    47    27    45    1
    48    27    46    1
    49    27    47    1
