@<TRIPOS>MOLECULE
IMPHY001948
 62 66 0 0 0
SMALL
GASTEIGER

@<TRIPOS>ATOM
      1 O           7.9288   -2.0254    0.0000 O.3     1  UNL1       -0.3876
      2 O           7.0628    1.4746    0.0000 O.3     1  UNL1       -0.3911
      3 O           2.5357   -3.0778    0.0000 O.3     1  UNL1       -0.3918
      4 O           9.1885    2.8479    0.0000 O.3     1  UNL1       -0.4571
      5 O          10.9491    3.1236    0.0000 O.2     1  UNL1       -0.2456
      6 C           7.9288   -1.0254    0.0000 C.3     1  UNL1        0.0774
      7 C           7.0628   -1.5254    0.0000 C.3     1  UNL1       -0.0081
      8 C           7.9288   -0.0254    0.0000 C.3     1  UNL1        0.0295
      9 C           6.1968   -1.0254    0.0000 C.3     1  UNL1       -0.0276
     10 C           5.2868   -1.5323    0.0000 C.3     1  UNL1       -0.0258
     11 C           7.0628    0.4746    0.0000 C.3     1  UNL1        0.0641
     12 C           5.2787   -2.5739    0.0000 C.3     1  UNL1       -0.0330
     13 C           6.1968   -0.0254    0.0000 C.3     1  UNL1       -0.0225
     14 C           8.8750    0.2793    0.0000 C.3     1  UNL1       -0.0057
     15 C           8.8750   -1.3302    0.0000 C.3     1  UNL1       -0.0226
     16 C           7.0789   -2.5669    0.0000 C.3     1  UNL1       -0.0470
     17 C           6.1808   -3.0947    0.0000 C.3     1  UNL1       -0.0493
     18 C           9.4586   -0.5254    0.0000 C.3     1  UNL1       -0.0431
     19 C           4.3599   -0.9682    0.0000 C.3     1  UNL1       -0.0448
     20 C           7.9288    0.9746    0.0000 C.3     1  UNL1       -0.0540
     21 C           4.3433   -3.1236    0.0000 C.3     1  UNL1       -0.0235
     22 C           5.2945   -0.5323    0.0000 C.3     1  UNL1       -0.0590
     23 C           3.4120   -1.4961    0.0000 C.3     1  UNL1       -0.0263
     24 C           3.4037   -2.5811    0.0000 C.3     1  UNL1        0.0555
     25 C           9.1857    1.2298    0.0000 C.2     1  UNL1       -0.0221
     26 C           8.5993    2.0399    0.0000 C.3     1  UNL1        0.1147
     27 C          10.1373    1.5372    0.0000 C.2     1  UNL1        0.0252
     28 C          10.1390    2.5372    0.0000 C.2     1  UNL1        0.3323
     29 H           7.8022   -1.9447    0.0000 H       1  UNL1        0.0331
     30 H           6.9329   -0.6004    0.0000 H       1  UNL1        0.0310
     31 H           6.5259    0.7846    0.0000 H       1  UNL1        0.0600
     32 H           5.2820   -3.4239    0.0000 H       1  UNL1        0.0307
     33 H           5.9847    0.5572    0.0000 H       1  UNL1        0.0293
     34 H           5.5862   -0.1331    0.0000 H       1  UNL1        0.0293
     35 H           9.4875    0.3755    0.0000 H       1  UNL1        0.0354
     36 H           8.6240   -1.8971    0.0000 H       1  UNL1        0.0293
     37 H           9.4124   -1.6394    0.0000 H       1  UNL1        0.0293
     38 H           7.2969   -3.1473    0.0000 H       1  UNL1        0.0269
     39 H           7.6880   -2.4514    0.0000 H       1  UNL1        0.0269
     40 H           5.7835   -3.5706    0.0000 H       1  UNL1        0.0268
     41 H           6.5818   -3.5676    0.0000 H       1  UNL1        0.0268
     42 H           9.9195   -0.9401    0.0000 H       1  UNL1        0.0272
     43 H           9.9195   -0.1107    0.0000 H       1  UNL1        0.0272
     44 H           4.7681   -0.5015    0.0000 H       1  UNL1        0.0271
     45 H           3.9700   -0.4861    0.0000 H       1  UNL1        0.0271
     46 H           8.5488    0.9746    0.0000 H       1  UNL1        0.0237
     47 H           7.9288    1.5946    0.0000 H       1  UNL1        0.0237
     48 H           7.3088    0.9746    0.0000 H       1  UNL1        0.0237
     49 H           3.9460   -3.5996    0.0000 H       1  UNL1        0.0293
     50 H           4.7443   -3.5965    0.0000 H       1  UNL1        0.0293
     51 H           5.9145   -0.5371    0.0000 H       1  UNL1        0.0235
     52 H           5.2993    0.0877    0.0000 H       1  UNL1        0.0235
     53 H           4.6745   -0.5275    0.0000 H       1  UNL1        0.0235
     54 H           3.2075   -0.9108    0.0000 H       1  UNL1        0.0290
     55 H           2.8004   -1.5975    0.0000 H       1  UNL1        0.0290
     56 H           2.8686   -2.2680    0.0000 H       1  UNL1        0.0593
     57 H           8.4658   -2.3354    0.0000 H       1  UNL1        0.2102
     58 H           6.5259    1.7846    0.0000 H       1  UNL1        0.2098
     59 H           8.1393    2.4555    0.0000 H       1  UNL1        0.0746
     60 H           8.1378    1.6258    0.0000 H       1  UNL1        0.0746
     61 H          10.6383    1.1719    0.0000 H       1  UNL1        0.0689
     62 H           2.0000   -2.7657    0.0000 H       1  UNL1        0.2098
@<TRIPOS>BOND
     1     6     1    1
     2     1    57    1
     3    11     2    1
     4     2    58    1
     5    24     3    1
     6     3    62    1
     7     4    26    1
     8     4    28    1
     9     5    28    2
    10     6     7    1
    11     6     8    1
    12     6    15    1
    13     7     9    1
    14     7    16    1
    15     7    29    1
    16     8    11    1
    17     8    14    1
    18     8    20    1
    19     9    10    1
    20     9    13    1
    21     9    30    1
    22    10    12    1
    23    10    19    1
    24    10    22    1
    25    11    13    1
    26    11    31    1
    27    12    17    1
    28    12    21    1
    29    12    32    1
    30    13    33    1
    31    13    34    1
    32    14    18    1
    33    14    25    1
    34    14    35    1
    35    15    18    1
    36    15    36    1
    37    15    37    1
    38    16    17    1
    39    16    38    1
    40    16    39    1
    41    17    40    1
    42    17    41    1
    43    18    42    1
    44    18    43    1
    45    19    23    1
    46    19    44    1
    47    19    45    1
    48    20    46    1
    49    20    47    1
    50    20    48    1
    51    21    24    1
    52    21    49    1
    53    21    50    1
    54    22    51    1
    55    22    52    1
    56    22    53    1
    57    23    24    1
    58    23    54    1
    59    23    55    1
    60    24    56    1
    61    25    26    1
    62    25    27    2
    63    26    59    1
    64    26    60    1
    65    27    28    1
    66    27    61    1
