@<TRIPOS>MOLECULE
IMPHY004173
 42 43 0 0 0
SMALL
GASTEIGER

@<TRIPOS>ATOM
      1 O           4.0000   -1.5000    0.0000 O.3     1  UNL1       -0.3877
      2 C           4.3660    0.8660    0.0000 C.3     1  UNL1       -0.0293
      3 C           4.3660   -0.1340    0.0000 C.3     1  UNL1        0.0095
      4 C           3.5000   -0.6340    0.0000 C.3     1  UNL1        0.0749
      5 C           3.5000    1.3660    0.0000 C.3     1  UNL1       -0.0403
      6 C           2.6340   -0.1340    0.0000 C.3     1  UNL1       -0.0229
      7 C           2.6340    0.8660    0.0000 C.3     1  UNL1       -0.0476
      8 C           5.2600    1.4007    0.0000 C.3     1  UNL1       -0.0457
      9 C           3.0000   -1.5000    0.0000 C.3     1  UNL1       -0.0172
     10 C           5.2600   -0.6686    0.0000 C.2     1  UNL1       -0.0789
     11 C           6.1660    0.8868    0.0000 C.3     1  UNL1       -0.0317
     12 C           3.5000    2.3660    0.0000 C.3     1  UNL1       -0.0621
     13 C           6.1660   -0.1548    0.0000 C.2     1  UNL1       -0.0762
     14 C           2.0000   -1.5000    0.0000 C.3     1  UNL1       -0.0600
     15 C           3.5000   -2.3660    0.0000 C.3     1  UNL1       -0.0600
     16 C           7.0301   -0.6581    0.0000 C.3     1  UNL1       -0.0438
     17 H           4.3595    1.7160    0.0000 H       1  UNL1        0.0310
     18 H           4.3595   -0.9839    0.0000 H       1  UNL1        0.0374
     19 H           2.9631    1.6760    0.0000 H       1  UNL1        0.0301
     20 H           2.0234   -0.0263    0.0000 H       1  UNL1        0.0293
     21 H           2.4219   -0.7166    0.0000 H       1  UNL1        0.0293
     22 H           2.4219    1.4486    0.0000 H       1  UNL1        0.0269
     23 H           2.0234    0.7584    0.0000 H       1  UNL1        0.0269
     24 H           5.6536    1.8797    0.0000 H       1  UNL1        0.0271
     25 H           4.8554    1.8705    0.0000 H       1  UNL1        0.0271
     26 H           2.6900   -0.9631    0.0000 H       1  UNL1        0.0323
     27 H           5.2528   -1.2886    0.0000 H       1  UNL1        0.0575
     28 H           6.7769    0.7807    0.0000 H       1  UNL1        0.0310
     29 H           6.3751    1.4705    0.0000 H       1  UNL1        0.0310
     30 H           4.1200    2.3660    0.0000 H       1  UNL1        0.0233
     31 H           3.5000    2.9860    0.0000 H       1  UNL1        0.0233
     32 H           2.8800    2.3660    0.0000 H       1  UNL1        0.0233
     33 H           4.6200   -1.5000    0.0000 H       1  UNL1        0.2102
     34 H           2.9631   -2.6760    0.0000 H       1  UNL1        0.0233
     35 H           3.8100   -2.9030    0.0000 H       1  UNL1        0.0233
     36 H           2.0000   -0.8800    0.0000 H       1  UNL1        0.0233
     37 H           1.3800   -1.5000    0.0000 H       1  UNL1        0.0233
     38 H           4.0369   -2.0560    0.0000 H       1  UNL1        0.0233
     39 H           2.0000   -2.1200    0.0000 H       1  UNL1        0.0233
     40 H           6.7181   -1.1939    0.0000 H       1  UNL1        0.0274
     41 H           7.5659   -0.9702    0.0000 H       1  UNL1        0.0274
     42 H           7.3422   -0.1224    0.0000 H       1  UNL1        0.0274
@<TRIPOS>BOND
     1     4     1    1
     2     1    33    1
     3     2     3    1
     4     2     5    1
     5     2     8    1
     6     2    17    1
     7     3     4    1
     8     3    10    1
     9     3    18    1
    10     4     6    1
    11     4     9    1
    12     5     7    1
    13     5    12    1
    14     5    19    1
    15     6     7    1
    16     6    20    1
    17     6    21    1
    18     7    22    1
    19     7    23    1
    20     8    11    1
    21     8    24    1
    22     8    25    1
    23     9    14    1
    24     9    15    1
    25     9    26    1
    26    10    13    2
    27    10    27    1
    28    11    13    1
    29    11    28    1
    30    11    29    1
    31    12    30    1
    32    12    31    1
    33    12    32    1
    34    13    16    1
    35    14    36    1
    36    14    37    1
    37    14    39    1
    38    15    34    1
    39    15    35    1
    40    15    38    1
    41    16    40    1
    42    16    41    1
    43    16    42    1
