@<TRIPOS>MOLECULE
IMPHY003258
 41 45 0 0 0
SMALL
GASTEIGER

@<TRIPOS>ATOM
      1 N           4.5623    0.8793    0.0000 N.3     1  UNL1       -0.2782
      2 N           2.7623    0.9001    0.0000 N.3     1  UNL1       -0.2869
      3 N           5.6376   -1.5926    0.0000 N.ar    1  UNL1       -0.3564
      4 C           3.6684    1.4139    0.0000 C.3     1  UNL1        0.0642
      5 C           4.5623   -0.1207    0.0000 C.3     1  UNL1        0.0535
      6 C           3.4583    2.4278    0.0000 C.3     1  UNL1       -0.0226
      7 C           3.6684   -0.6554    0.0000 C.3     1  UNL1       -0.0189
      8 C           2.7623   -0.1416    0.0000 C.3     1  UNL1        0.0021
      9 C           2.0000    1.6008    0.0000 C.3     1  UNL1        0.0004
     10 C           5.4284    1.3793    0.0000 C.3     1  UNL1        0.0050
     11 C           2.4293    2.5431    0.0000 C.3     1  UNL1       -0.0375
     12 C           5.4284   -0.6207    0.0000 C.ar    1  UNL1        0.0377
     13 C           6.2944    0.8793    0.0000 C.3     1  UNL1       -0.0125
     14 C           6.2944   -0.1207    0.0000 C.ar    1  UNL1       -0.0164
     15 C           7.0314   -0.7878    0.0000 C.ar    1  UNL1        0.0032
     16 C           6.6263   -1.6956    0.0000 C.ar    1  UNL1        0.0470
     17 C           8.0595   -0.6646    0.0000 C.ar    1  UNL1       -0.0523
     18 C           7.2212   -2.5431    0.0000 C.ar    1  UNL1       -0.0378
     19 C           8.6738   -1.4981    0.0000 C.ar    1  UNL1       -0.0611
     20 C           8.2519   -2.4437    0.0000 C.ar    1  UNL1       -0.0598
     21 H           4.3611    1.9064    0.0000 H       1  UNL1        0.0632
     22 H           4.5689   -0.9707    0.0000 H       1  UNL1        0.0528
     23 H           4.0752    2.4891    0.0000 H       1  UNL1        0.0294
     24 H           3.4622    3.0478    0.0000 H       1  UNL1        0.0294
     25 H           3.2748   -1.1344    0.0000 H       1  UNL1        0.0296
     26 H           4.0730   -1.1252    0.0000 H       1  UNL1        0.0296
     27 H           2.1515   -0.0355    0.0000 H       1  UNL1        0.0428
     28 H           2.5533   -0.7253    0.0000 H       1  UNL1        0.0428
     29 H           1.4659    1.9157    0.0000 H       1  UNL1        0.0427
     30 H           1.6307    1.1028    0.0000 H       1  UNL1        0.0427
     31 H           5.8269    1.8542    0.0000 H       1  UNL1        0.0430
     32 H           5.0298    1.8542    0.0000 H       1  UNL1        0.0430
     33 H           2.5627    3.1486    0.0000 H       1  UNL1        0.0278
     34 H           1.8412    2.7394    0.0000 H       1  UNL1        0.0278
     35 H           6.9050    0.7716    0.0000 H       1  UNL1        0.0326
     36 H           6.5064    1.4619    0.0000 H       1  UNL1        0.0326
     37 H           5.2235   -2.0540    0.0000 H       1  UNL1        0.1656
     38 H           8.3056   -0.0956    0.0000 H       1  UNL1        0.0624
     39 H           6.9620   -3.1063    0.0000 H       1  UNL1        0.0638
     40 H           9.2903   -1.4315    0.0000 H       1  UNL1        0.0618
     41 H           8.6139   -2.9470    0.0000 H       1  UNL1        0.0618
@<TRIPOS>BOND
     1     1     4    1
     2     1     5    1
     3     1    10    1
     4     2     4    1
     5     2     8    1
     6     2     9    1
     7     3    12   ar
     8     3    16   ar
     9     3    37    1
    10     4     6    1
    11     4    21    1
    12     5     7    1
    13     5    12    1
    14     5    22    1
    15     6    11    1
    16     6    23    1
    17     6    24    1
    18     7     8    1
    19     7    25    1
    20     7    26    1
    21     8    27    1
    22     8    28    1
    23     9    11    1
    24     9    29    1
    25     9    30    1
    26    10    13    1
    27    10    31    1
    28    10    32    1
    29    11    33    1
    30    11    34    1
    31    12    14   ar
    32    13    14    1
    33    13    35    1
    34    13    36    1
    35    14    15   ar
    36    15    16   ar
    37    15    17   ar
    38    16    18   ar
    39    17    19   ar
    40    17    38    1
    41    18    20   ar
    42    18    39    1
    43    19    20   ar
    44    19    40    1
    45    20    41    1
