@<TRIPOS>MOLECULE
IMPHY016633
 55 54 0 0 0
SMALL
GASTEIGER

@<TRIPOS>ATOM
      1 O           6.3301    2.6900    0.0000 O.3     1  UNL1       -0.3878
      2 O           9.7942   -2.3100    0.0000 O.3     1  UNL1       -0.3878
      3 C           9.7942    0.6900    0.0000 C.3     1  UNL1       -0.0530
      4 C           8.9282    1.1900    0.0000 C.3     1  UNL1       -0.0528
      5 C           9.7942   -0.3100    0.0000 C.3     1  UNL1       -0.0504
      6 C           8.9282    2.1900    0.0000 C.3     1  UNL1       -0.0496
      7 C          10.6603   -0.8100    0.0000 C.3     1  UNL1       -0.0232
      8 C           8.0622    2.6900    0.0000 C.3     1  UNL1       -0.0347
      9 C           5.4641    4.1900    0.0000 C.3     1  UNL1       -0.0232
     10 C           4.5981    3.6900    0.0000 C.3     1  UNL1       -0.0504
     11 C           6.3301    3.6900    0.0000 C.3     1  UNL1        0.0734
     12 C           3.7320    4.1900    0.0000 C.3     1  UNL1       -0.0532
     13 C          10.6603   -1.8100    0.0000 C.3     1  UNL1        0.0736
     14 C           8.0622    3.6900    0.0000 C.2     1  UNL1       -0.0855
     15 C           7.1962    4.1900    0.0000 C.2     1  UNL1       -0.0598
     16 C           2.8660    3.6900    0.0000 C.3     1  UNL1       -0.0559
     17 C          11.5263   -2.3100    0.0000 C.2     1  UNL1       -0.0559
     18 C           2.0000    4.1900    0.0000 C.3     1  UNL1       -0.0653
     19 C          11.5263   -3.3100    0.0000 C.2     1  UNL1       -0.0638
     20 C          12.3923   -3.8100    0.0000 C.2     1  UNL1       -0.0691
     21 C          12.3923   -4.8100    0.0000 C.2     1  UNL1       -0.0987
     22 H          10.4048    0.5823    0.0000 H       1  UNL1        0.0265
     23 H          10.0063    1.2726    0.0000 H       1  UNL1        0.0265
     24 H           8.3176    1.2977    0.0000 H       1  UNL1        0.0265
     25 H           8.7162    0.6074    0.0000 H       1  UNL1        0.0265
     26 H           9.1836   -0.2023    0.0000 H       1  UNL1        0.0266
     27 H           9.5822   -0.8926    0.0000 H       1  UNL1        0.0266
     28 H           9.5388    2.0823    0.0000 H       1  UNL1        0.0268
     29 H           9.1403    2.7726    0.0000 H       1  UNL1        0.0268
     30 H          11.2708   -0.9177    0.0000 H       1  UNL1        0.0293
     31 H          10.8723   -0.2274    0.0000 H       1  UNL1        0.0293
     32 H           7.4516    2.7977    0.0000 H       1  UNL1        0.0307
     33 H           7.8501    2.1074    0.0000 H       1  UNL1        0.0307
     34 H           5.8626    4.6650    0.0000 H       1  UNL1        0.0293
     35 H           5.0656    4.6650    0.0000 H       1  UNL1        0.0293
     36 H           4.1996    3.2151    0.0000 H       1  UNL1        0.0266
     37 H           4.9966    3.2151    0.0000 H       1  UNL1        0.0266
     38 H           6.8671    3.3800    0.0000 H       1  UNL1        0.0637
     39 H           4.1306    4.6650    0.0000 H       1  UNL1        0.0265
     40 H           3.3335    4.6650    0.0000 H       1  UNL1        0.0265
     41 H          10.6603   -2.4300    0.0000 H       1  UNL1        0.0638
     42 H           8.5991    4.0000    0.0000 H       1  UNL1        0.0570
     43 H           7.1962    4.8100    0.0000 H       1  UNL1        0.0594
     44 H           2.4675    3.2151    0.0000 H       1  UNL1        0.0263
     45 H           3.2646    3.2151    0.0000 H       1  UNL1        0.0263
     46 H          12.0632   -2.0000    0.0000 H       1  UNL1        0.0597
     47 H           2.3100    4.7269    0.0000 H       1  UNL1        0.0230
     48 H           1.4631    4.5000    0.0000 H       1  UNL1        0.0230
     49 H           1.6900    3.6531    0.0000 H       1  UNL1        0.0230
     50 H           5.7932    2.3800    0.0000 H       1  UNL1        0.2102
     51 H           9.7942   -2.9300    0.0000 H       1  UNL1        0.2102
     52 H          10.9893   -3.6200    0.0000 H       1  UNL1        0.0615
     53 H          12.9292   -3.5000    0.0000 H       1  UNL1        0.0612
     54 H          11.8554   -5.1200    0.0000 H       1  UNL1        0.0535
     55 H          12.9292   -5.1200    0.0000 H       1  UNL1        0.0535
@<TRIPOS>BOND
     1     1    11    1
     2     1    50    1
     3     2    13    1
     4     2    51    1
     5     3     4    1
     6     3     5    1
     7     3    22    1
     8     3    23    1
     9     4     6    1
    10     4    24    1
    11     4    25    1
    12     5     7    1
    13     5    26    1
    14     5    27    1
    15     6     8    1
    16     6    28    1
    17     6    29    1
    18     7    13    1
    19     7    30    1
    20     7    31    1
    21     8    14    1
    22     8    32    1
    23     8    33    1
    24     9    10    1
    25     9    11    1
    26     9    34    1
    27     9    35    1
    28    10    12    1
    29    10    36    1
    30    10    37    1
    31    11    15    1
    32    11    38    1
    33    12    16    1
    34    12    39    1
    35    12    40    1
    36    13    17    1
    37    13    41    1
    38    14    15    2
    39    14    42    1
    40    15    43    1
    41    16    18    1
    42    16    44    1
    43    16    45    1
    44    17    19    2
    45    17    46    1
    46    18    47    1
    47    18    48    1
    48    18    49    1
    49    19    20    1
    50    19    52    1
    51    20    21    2
    52    20    53    1
    53    21    54    1
    54    21    55    1
