@<TRIPOS>MOLECULE
IMPHY010853
 89 95 0 0 0
SMALL
GASTEIGER

@<TRIPOS>ATOM
      1 O           7.3700   -2.0812    0.0000 O.3     1  UNL1       -0.4478
      2 O           8.0241   -2.7798    0.0000 O.3     1  UNL1       -0.4885
      3 O           6.8654   -0.8637    0.0000 O.3     1  UNL1       -0.4885
      4 O           5.1584    0.1218    0.0000 O.3     1  UNL1       -0.4913
      5 O           9.9145   -2.3936    0.0000 O.3     1  UNL1       -0.4913
      6 O           3.0573    1.7303    0.0000 O.3     1  UNL1       -0.4524
      7 O           3.3771    3.6817    0.0000 O.3     1  UNL1       -0.5033
      8 N           7.6722    1.4831    0.0000 N.3     1  UNL1       -0.2977
      9 N           3.4765   -3.7914    0.0000 N.3     1  UNL1       -0.2978
     10 C           7.3540    0.5656    0.0000 C.3     1  UNL1        0.0432
     11 C           3.4765   -2.8204    0.0000 C.3     1  UNL1        0.0398
     12 C           7.9894   -0.1687    0.0000 C.ar    1  UNL1        0.0193
     13 C           4.3174   -2.3348    0.0000 C.ar    1  UNL1       -0.0196
     14 C           5.1584   -2.8204    0.0000 C.ar    1  UNL1        0.0047
     15 C           8.6259    1.6662    0.0000 C.3     1  UNL1        0.0032
     16 C           8.9430    0.0144    0.0000 C.ar    1  UNL1       -0.0343
     17 C           5.1584   -3.7914    0.0000 C.3     1  UNL1       -0.0109
     18 C           4.3174   -4.2770    0.0000 C.3     1  UNL1        0.0033
     19 C           9.2613    0.9319    0.0000 C.3     1  UNL1       -0.0143
     20 C           6.1184    0.6809    0.0000 C.3     1  UNL1       -0.0076
     21 C           2.6355   -2.3348    0.0000 C.3     1  UNL1       -0.0079
     22 C           7.6711   -1.0861    0.0000 C.ar    1  UNL1        0.1786
     23 C           5.9889   -2.3618    0.0000 C.ar    1  UNL1        0.1772
     24 C           4.3174   -1.3637    0.0000 C.ar    1  UNL1       -0.0111
     25 C           9.5784   -0.7199    0.0000 C.ar    1  UNL1       -0.0125
     26 C           7.0179    2.2393    0.0000 C.3     1  UNL1       -0.0122
     27 C           2.6104   -4.2914    0.0000 C.3     1  UNL1       -0.0122
     28 C           8.3066   -1.8205    0.0000 C.ar    1  UNL1        0.2045
     29 C           5.6167    1.7737    0.0000 C.ar    1  UNL1       -0.0419
     30 C           5.9994   -1.3637    0.0000 C.ar    1  UNL1        0.2044
     31 C           2.7936   -1.1709    0.0000 C.ar    1  UNL1       -0.0453
     32 C           5.1584   -0.8782    0.0000 C.ar    1  UNL1        0.1655
     33 C           9.2602   -1.6374    0.0000 C.ar    1  UNL1        0.1655
     34 C           4.7018    1.4484    0.0000 C.ar    1  UNL1       -0.0124
     35 C           5.7925    2.7288    0.0000 C.ar    1  UNL1       -0.0548
     36 C           2.0000   -0.6113    0.0000 C.ar    1  UNL1       -0.0550
     37 C           3.6750   -0.7635    0.0000 C.ar    1  UNL1       -0.0550
     38 C           3.9625    2.0781    0.0000 C.ar    1  UNL1        0.1698
     39 C           2.9694    0.7632    0.0000 C.ar    1  UNL1        0.1286
     40 C           2.0879    0.3558    0.0000 C.ar    1  UNL1       -0.0191
     41 C           3.7630    0.2036    0.0000 C.ar    1  UNL1       -0.0191
     42 C           5.0532    3.3585    0.0000 C.ar    1  UNL1       -0.0162
     43 C           4.1383    3.0332    0.0000 C.ar    1  UNL1        0.1591
     44 C           8.7137   -3.5040    0.0000 C.3     1  UNL1        0.0791
     45 C           6.8654    0.1363    0.0000 C.3     1  UNL1        0.0791
     46 C           4.2924    0.6218    0.0000 C.3     1  UNL1        0.0790
     47 C          10.8966   -2.2050    0.0000 C.3     1  UNL1        0.0790
     48 H           6.8939    1.2804    0.0000 H       1  UNL1        0.0516
     49 H           2.7404   -3.2454    0.0000 H       1  UNL1        0.0515
     50 H           9.1580    1.9843    0.0000 H       1  UNL1        0.0430
     51 H           8.4050    2.2455    0.0000 H       1  UNL1        0.0430
     52 H           5.3705   -4.3740    0.0000 H       1  UNL1        0.0327
     53 H           5.7690   -3.6838    0.0000 H       1  UNL1        0.0327
     54 H           3.9189   -4.7519    0.0000 H       1  UNL1        0.0430
     55 H           4.7160   -4.7519    0.0000 H       1  UNL1        0.0430
     56 H           9.8029    0.6300    0.0000 H       1  UNL1        0.0326
     57 H           9.6526    1.4128    0.0000 H       1  UNL1        0.0326
     58 H           5.5186    0.5240    0.0000 H       1  UNL1        0.0332
     59 H           6.1688    0.0630    0.0000 H       1  UNL1        0.0332
     60 H           2.0371   -2.1727    0.0000 H       1  UNL1        0.0332
     61 H           2.3974   -2.9073    0.0000 H       1  UNL1        0.0332
     62 H           3.7805   -1.0537    0.0000 H       1  UNL1        0.0659
     63 H          10.1873   -0.6030    0.0000 H       1  UNL1        0.0658
     64 H           7.4867    2.6450    0.0000 H       1  UNL1        0.0391
     65 H           6.6122    2.7081    0.0000 H       1  UNL1        0.0391
     66 H           6.5490    1.8336    0.0000 H       1  UNL1        0.0391
     67 H           2.3004   -3.7545    0.0000 H       1  UNL1        0.0391
     68 H           2.0735   -4.6014    0.0000 H       1  UNL1        0.0391
     69 H           2.9204   -4.8284    0.0000 H       1  UNL1        0.0391
     70 H           4.5895    0.8387    0.0000 H       1  UNL1        0.0658
     71 H           6.3766    2.9365    0.0000 H       1  UNL1        0.0621
     72 H           1.4372   -0.8714    0.0000 H       1  UNL1        0.0621
     73 H           4.1817   -1.1209    0.0000 H       1  UNL1        0.0621
     74 H           1.5812    0.7132    0.0000 H       1  UNL1        0.0654
     75 H           4.3258    0.4637    0.0000 H       1  UNL1        0.0654
     76 H           5.1655    3.9683    0.0000 H       1  UNL1        0.0655
     77 H           8.2647   -3.9315    0.0000 H       1  UNL1        0.0660
     78 H           9.1412   -3.9530    0.0000 H       1  UNL1        0.0660
     79 H           9.1627   -3.0765    0.0000 H       1  UNL1        0.0660
     80 H           7.4854    0.1363    0.0000 H       1  UNL1        0.0660
     81 H           6.8654    0.7563    0.0000 H       1  UNL1        0.0660
     82 H           6.2454    0.1363    0.0000 H       1  UNL1        0.0660
     83 H           4.6024    1.1587    0.0000 H       1  UNL1        0.0660
     84 H           3.7554    0.9318    0.0000 H       1  UNL1        0.0660
     85 H           3.9824    0.0849    0.0000 H       1  UNL1        0.0660
     86 H          11.0135   -2.8139    0.0000 H       1  UNL1        0.0660
     87 H          11.5055   -2.0881    0.0000 H       1  UNL1        0.0660
     88 H          10.7797   -1.5961    0.0000 H       1  UNL1        0.0660
     89 H           3.4893    4.2914    0.0000 H       1  UNL1        0.2923
@<TRIPOS>BOND
     1     1    22    1
     2     1    23    1
     3     2    28    1
     4     2    44    1
     5     3    30    1
     6     3    45    1
     7     4    32    1
     8     4    46    1
     9     5    33    1
    10     5    47    1
    11     6    38    1
    12     6    39    1
    13     7    43    1
    14     7    89    1
    15     8    10    1
    16     8    15    1
    17     8    26    1
    18     9    11    1
    19     9    18    1
    20     9    27    1
    21    10    12    1
    22    10    20    1
    23    10    48    1
    24    11    13    1
    25    11    21    1
    26    11    49    1
    27    12    16   ar
    28    12    22   ar
    29    13    14   ar
    30    13    24   ar
    31    14    17    1
    32    14    23   ar
    33    15    19    1
    34    15    50    1
    35    15    51    1
    36    16    19    1
    37    16    25   ar
    38    17    18    1
    39    17    52    1
    40    17    53    1
    41    18    54    1
    42    18    55    1
    43    19    56    1
    44    19    57    1
    45    20    29    1
    46    20    58    1
    47    20    59    1
    48    21    31    1
    49    21    60    1
    50    21    61    1
    51    22    28   ar
    52    23    30   ar
    53    24    32   ar
    54    24    62    1
    55    25    33   ar
    56    25    63    1
    57    26    64    1
    58    26    65    1
    59    26    66    1
    60    27    67    1
    61    27    68    1
    62    27    69    1
    63    28    33   ar
    64    29    34   ar
    65    29    35   ar
    66    30    32   ar
    67    31    36   ar
    68    31    37   ar
    69    34    38   ar
    70    34    70    1
    71    35    42   ar
    72    35    71    1
    73    36    40   ar
    74    36    72    1
    75    37    41   ar
    76    37    73    1
    77    38    43   ar
    78    39    40   ar
    79    39    41   ar
    80    40    74    1
    81    41    75    1
    82    42    43   ar
    83    42    76    1
    84    44    77    1
    85    44    78    1
    86    44    79    1
    87    45    80    1
    88    45    81    1
    89    45    82    1
    90    46    83    1
    91    46    84    1
    92    46    85    1
    93    47    86    1
    94    47    87    1
    95    47    88    1
