@<TRIPOS>MOLECULE
IMPHY008319
 60 63 0 0 0
SMALL
GASTEIGER

@<TRIPOS>ATOM
      1 O           8.1223   -1.9228    0.0000 O.3     1  UNL1       -0.3475
      2 O           8.6855    1.9866    0.0000 O.3     1  UNL1       -0.3859
      3 O           5.5103    1.6056    0.0000 O.3     1  UNL1       -0.3888
      4 O           7.2762    2.6434    0.0000 O.3     1  UNL1       -0.3864
      5 O           9.8438   -1.9556    0.0000 O.3     1  UNL1       -0.3545
      6 O           4.6497    1.1087    0.0000 O.2     1  UNL1       -0.2882
      7 O           2.8680    0.0982    0.0000 O.2     1  UNL1       -0.4919
      8 C           7.2641   -0.4259    0.0000 C.3     1  UNL1        0.0061
      9 C           6.3981    0.0741    0.0000 C.3     1  UNL1        0.0084
     10 C           8.1741    0.0809    0.0000 C.3     1  UNL1        0.0028
     11 C           5.5320   -0.4259    0.0000 C.3     1  UNL1        0.0428
     12 C           7.2641   -1.4259    0.0000 C.3     1  UNL1        0.0680
     13 C           5.5320   -1.4259    0.0000 C.3     1  UNL1       -0.0222
     14 C           8.1821    1.1225    0.0000 C.3     1  UNL1        0.0950
     15 C           6.3820    1.1156    0.0000 C.3     1  UNL1        0.0880
     16 C           6.3981   -1.9259    0.0000 C.3     1  UNL1       -0.0219
     17 C           7.2800    1.6434    0.0000 C.3     1  UNL1        0.1099
     18 C           9.0134   -0.4473    0.0000 C.3     1  UNL1        0.0045
     19 C           7.2641    0.5741    0.0000 C.3     1  UNL1       -0.0565
     20 C           8.9878   -1.4387    0.0000 C.3     1  UNL1        0.1595
     21 C           5.5320    0.5741    0.0000 C.3     1  UNL1       -0.0518
     22 C           4.6381   -1.9606    0.0000 C.3     1  UNL1       -0.0271
     23 C           4.6381    0.1088    0.0000 C.2     1  UNL1        0.2034
     24 C           9.1821    1.1187    0.0000 C.3     1  UNL1       -0.0333
     25 C           3.7320   -0.4051    0.0000 C.2     1  UNL1        0.1590
     26 C           3.7320   -1.4467    0.0000 C.2     1  UNL1       -0.0385
     27 C           9.8241   -2.9554    0.0000 C.3     1  UNL1        0.0394
     28 C           2.0000   -0.3984    0.0000 C.3     1  UNL1        0.0789
     29 H           5.6587    0.4934    0.0000 H       1  UNL1        0.0342
     30 H           8.9198    0.4890    0.0000 H       1  UNL1        0.0337
     31 H           7.2636   -2.2759    0.0000 H       1  UNL1        0.0603
     32 H           5.5386   -2.2759    0.0000 H       1  UNL1        0.0314
     33 H           5.8493    0.7984    0.0000 H       1  UNL1        0.0623
     34 H           5.9995   -2.4008    0.0000 H       1  UNL1        0.0293
     35 H           6.7966   -2.4008    0.0000 H       1  UNL1        0.0293
     36 H           6.7413    1.9502    0.0000 H       1  UNL1        0.0648
     37 H           9.6205   -0.5732    0.0000 H       1  UNL1        0.0318
     38 H           9.2452    0.1278    0.0000 H       1  UNL1        0.0318
     39 H           7.8841    0.5741    0.0000 H       1  UNL1        0.0236
     40 H           7.2641    1.1941    0.0000 H       1  UNL1        0.0236
     41 H           6.6441    0.5741    0.0000 H       1  UNL1        0.0236
     42 H           8.9775   -2.0586    0.0000 H       1  UNL1        0.0909
     43 H           6.1520    0.5741    0.0000 H       1  UNL1        0.0239
     44 H           5.5320    1.1941    0.0000 H       1  UNL1        0.0239
     45 H           4.9120    0.5741    0.0000 H       1  UNL1        0.0239
     46 H           4.2445   -2.4396    0.0000 H       1  UNL1        0.0312
     47 H           5.0427   -2.4303    0.0000 H       1  UNL1        0.0312
     48 H           9.1797    0.4987    0.0000 H       1  UNL1        0.0258
     49 H           9.8021    1.1163    0.0000 H       1  UNL1        0.0258
     50 H           9.1845    1.7387    0.0000 H       1  UNL1        0.0258
     51 H           9.3055    1.9842    0.0000 H       1  UNL1        0.2103
     52 H           5.5031    2.2255    0.0000 H       1  UNL1        0.2099
     53 H           3.1963   -1.7588    0.0000 H       1  UNL1        0.0609
     54 H           7.8119    2.9554    0.0000 H       1  UNL1        0.2100
     55 H           9.2042   -2.9432    0.0000 H       1  UNL1        0.0525
     56 H           9.8119   -3.5753    0.0000 H       1  UNL1        0.0525
     57 H          10.4440   -2.9676    0.0000 H       1  UNL1        0.0525
     58 H           1.6921    0.1397    0.0000 H       1  UNL1        0.0660
     59 H           1.4619   -0.7063    0.0000 H       1  UNL1        0.0660
     60 H           2.3079   -0.9365    0.0000 H       1  UNL1        0.0660
@<TRIPOS>BOND
     1     1    12    1
     2     1    20    1
     3    14     2    1
     4     2    51    1
     5    15     3    1
     6     3    52    1
     7    17     4    1
     8     4    54    1
     9    20     5    1
    10     5    27    1
    11     6    23    2
    12     7    25    1
    13     7    28    1
    14     8     9    1
    15     8    10    1
    16     8    12    1
    17     8    19    1
    18     9    11    1
    19     9    15    1
    20     9    29    1
    21    10    14    1
    22    10    18    1
    23    10    30    1
    24    11    13    1
    25    11    21    1
    26    11    23    1
    27    12    16    1
    28    12    31    1
    29    13    16    1
    30    13    22    1
    31    13    32    1
    32    14    17    1
    33    14    24    1
    34    15    17    1
    35    15    33    1
    36    16    34    1
    37    16    35    1
    38    17    36    1
    39    18    20    1
    40    18    37    1
    41    18    38    1
    42    19    39    1
    43    19    40    1
    44    19    41    1
    45    20    42    1
    46    21    43    1
    47    21    44    1
    48    21    45    1
    49    22    26    1
    50    22    46    1
    51    22    47    1
    52    23    25    1
    53    24    48    1
    54    24    49    1
    55    24    50    1
    56    25    26    2
    57    26    53    1
    58    27    55    1
    59    27    56    1
    60    27    57    1
    61    28    58    1
    62    28    59    1
    63    28    60    1
