@<TRIPOS>MOLECULE
IMPHY009492
 69 75 0 0 0
SMALL
GASTEIGER

@<TRIPOS>ATOM
      1 O          10.9862   -0.5311    0.0000 O.3     1  UNL1       -0.4599
      2 O           6.8671    0.2167    0.0000 O.3     1  UNL1       -0.3265
      3 O           5.1350    0.2167    0.0000 O.3     1  UNL1       -0.3405
      4 O          10.0418   -1.9830    0.0000 O.2     1  UNL1       -0.2512
      5 O           6.8671   -1.7833    0.0000 O.3     1  UNL1       -0.3841
      6 O           5.1350   -2.7833    0.0000 O.3     1  UNL1       -0.3864
      7 O           3.4030   -1.7833    0.0000 O.3     1  UNL1       -0.3865
      8 O           2.5369   -0.2833    0.0000 O.3     1  UNL1       -0.3924
      9 N           8.2179    1.0827    0.0000 N.3     1  UNL1       -0.2623
     10 N          10.0635    2.4518    0.0000 N.2     1  UNL1       -0.2536
     11 C           8.2179   -0.3910    0.0000 C.3     1  UNL1        0.0198
     12 C           8.6433    0.3458    0.0000 C.3     1  UNL1        0.0217
     13 C           9.9196    1.0827    0.0000 C.3     1  UNL1        0.0760
     14 C          10.1479    0.0142    0.0000 C.3     1  UNL1        0.1226
     15 C           7.3671    2.5564    0.0000 C.3     1  UNL1       -0.0068
     16 C           8.6433    1.8195    0.0000 C.3     1  UNL1        0.0532
     17 C           9.4942    0.3458    0.0000 C.3     1  UNL1       -0.0184
     18 C           8.2179    2.5564    0.0000 C.3     1  UNL1       -0.0249
     19 C           9.4942    1.8195    0.0000 C.2     1  UNL1        0.0508
     20 C           7.3671    1.0827    0.0000 C.3     1  UNL1        0.1381
     21 C           6.9416    1.8196    0.0000 C.2     1  UNL1       -0.0269
     22 C          10.7518    1.2596    0.0000 C.ar    1  UNL1       -0.0067
     23 C          10.8408    2.1058    0.0000 C.ar    1  UNL1        0.0681
     24 C           5.9416    1.8196    0.0000 C.2     1  UNL1       -0.0839
     25 C          11.4402    0.7595    0.0000 C.ar    1  UNL1       -0.0555
     26 C          11.6180    2.4518    0.0000 C.ar    1  UNL1       -0.0360
     27 C           6.0010   -0.2833    0.0000 C.3     1  UNL1        0.1901
     28 C          10.9331   -1.5296    0.0000 C.2     1  UNL1        0.3043
     29 C          12.2174    1.1056    0.0000 C.ar    1  UNL1       -0.0613
     30 C           5.4416    2.6856    0.0000 C.3     1  UNL1       -0.0464
     31 C          12.3064    1.9517    0.0000 C.ar    1  UNL1       -0.0597
     32 C           6.0010   -1.2833    0.0000 C.3     1  UNL1        0.1342
     33 C          11.7714   -2.0749    0.0000 C.3     1  UNL1        0.0332
     34 C           5.1350   -1.7833    0.0000 C.3     1  UNL1        0.1141
     35 C           4.2690   -0.2833    0.0000 C.3     1  UNL1        0.1130
     36 C           4.2690   -1.2833    0.0000 C.3     1  UNL1        0.1119
     37 C           3.4030    0.2167    0.0000 C.3     1  UNL1        0.0730
     38 H           7.7798   -1.1194    0.0000 H       1  UNL1        0.0358
     39 H           8.9942   -0.4284    0.0000 H       1  UNL1        0.0468
     40 H          10.6588    0.3654    0.0000 H       1  UNL1        0.0750
     41 H           6.9421    3.2925    0.0000 H       1  UNL1        0.0352
     42 H           9.0683    2.5556    0.0000 H       1  UNL1        0.0526
     43 H           9.3865   -0.2647    0.0000 H       1  UNL1        0.0294
     44 H          10.0768    0.1338    0.0000 H       1  UNL1        0.0294
     45 H           8.8005    2.7684    0.0000 H       1  UNL1        0.0290
     46 H           8.1102    3.1670    0.0000 H       1  UNL1        0.0290
     47 H           6.7471    1.0827    0.0000 H       1  UNL1        0.0820
     48 H           5.6316    1.2826    0.0000 H       1  UNL1        0.0570
     49 H          11.3753    0.1429    0.0000 H       1  UNL1        0.0621
     50 H          11.6828    3.0684    0.0000 H       1  UNL1        0.0639
     51 H           6.0010    0.3367    0.0000 H       1  UNL1        0.0938
     52 H          12.7190    0.7411    0.0000 H       1  UNL1        0.0618
     53 H           5.9786    2.9956    0.0000 H       1  UNL1        0.0272
     54 H           5.1317    3.2225    0.0000 H       1  UNL1        0.0272
     55 H           4.9047    2.3756    0.0000 H       1  UNL1        0.0272
     56 H          12.8728    2.2039    0.0000 H       1  UNL1        0.0618
     57 H           6.0010   -1.9033    0.0000 H       1  UNL1        0.0671
     58 H          11.4334   -2.5946    0.0000 H       1  UNL1        0.0342
     59 H          12.2911   -2.4129    0.0000 H       1  UNL1        0.0342
     60 H          12.1095   -1.5552    0.0000 H       1  UNL1        0.0342
     61 H           4.5981   -2.0933    0.0000 H       1  UNL1        0.0648
     62 H           4.2690    0.3367    0.0000 H       1  UNL1        0.0647
     63 H           4.2690   -1.9033    0.0000 H       1  UNL1        0.0647
     64 H           6.8671   -2.4033    0.0000 H       1  UNL1        0.2101
     65 H           3.8015    0.6916    0.0000 H       1  UNL1        0.0584
     66 H           3.0044    0.6916    0.0000 H       1  UNL1        0.0584
     67 H           4.5981   -3.0933    0.0000 H       1  UNL1        0.2100
     68 H           3.4030   -2.4033    0.0000 H       1  UNL1        0.2100
     69 H           2.0000    0.0267    0.0000 H       1  UNL1        0.2095
@<TRIPOS>BOND
     1    14     1    1
     2     1    28    1
     3    20     2    1
     4    27     2    1
     5     3    27    1
     6     3    35    1
     7     4    28    2
     8    32     5    1
     9     5    64    1
    10    34     6    1
    11     6    67    1
    12    36     7    1
    13     7    68    1
    14     8    37    1
    15     8    69    1
    16     9    12    1
    17     9    16    1
    18     9    20    1
    19    10    19    2
    20    10    23    1
    21    11    12    1
    22    11    14    1
    23    11    15    1
    24    11    38    1
    25    12    17    1
    26    12    39    1
    27    13    14    1
    28    13    17    1
    29    13    19    1
    30    13    22    1
    31    14    40    1
    32    15    18    1
    33    15    21    1
    34    15    41    1
    35    16    18    1
    36    16    19    1
    37    16    42    1
    38    17    43    1
    39    17    44    1
    40    18    45    1
    41    18    46    1
    42    20    21    1
    43    20    47    1
    44    21    24    2
    45    22    23   ar
    46    22    25   ar
    47    23    26   ar
    48    24    30    1
    49    24    48    1
    50    25    29   ar
    51    25    49    1
    52    26    31   ar
    53    26    50    1
    54    27    32    1
    55    27    51    1
    56    28    33    1
    57    29    31   ar
    58    29    52    1
    59    30    53    1
    60    30    54    1
    61    30    55    1
    62    31    56    1
    63    32    34    1
    64    32    57    1
    65    33    58    1
    66    33    59    1
    67    33    60    1
    68    34    36    1
    69    34    61    1
    70    35    36    1
    71    35    37    1
    72    35    62    1
    73    36    63    1
    74    37    65    1
    75    37    66    1
