@<TRIPOS>MOLECULE
IMPHY005014
 49 52 0 0 0
SMALL
GASTEIGER

@<TRIPOS>ATOM
      1 S           5.1364    0.0327    0.0000 S.O2    1  UNL1        0.1313
      2 O           7.0394   -1.0752    0.0000 O.3     1  UNL1       -0.3757
      3 O           6.0062   -0.4607    0.0000 O.3     1  UNL1       -0.3420
      4 O           6.0024    1.5918    0.0000 O.3     1  UNL1       -0.5032
      5 O           4.6430   -0.8372    0.0000 O.2     1  UNL1       -0.1362
      6 O           5.6297    0.9025    0.0000 O.2     1  UNL1       -0.1362
      7 O           2.5346    0.5128    0.0000 O.3     1  UNL1       -0.4794
      8 O           3.4120   -0.9806    0.0000 O.2     1  UNL1       -0.2490
      9 N          10.4150    0.0668    0.0000 N.3     1  UNL1       -0.2850
     10 C           9.5455   -0.4352    0.0000 C.3     1  UNL1        0.0755
     11 C           8.5258   -0.6384    0.0000 C.3     1  UNL1        0.0039
     12 C           9.7555   -1.4110    0.0000 C.2     1  UNL1       -0.0256
     13 C           8.6759    0.0668    0.0000 C.ar    1  UNL1       -0.0157
     14 C          10.4150    1.0709    0.0000 C.3     1  UNL1        0.0043
     15 C          11.1551   -0.6030    0.0000 C.3     1  UNL1        0.0188
     16 C           8.0062   -1.3305    0.0000 C.3     1  UNL1        0.0790
     17 C           9.5455    1.5730    0.0000 C.3     1  UNL1       -0.0144
     18 C           8.6759    1.0709    0.0000 C.ar    1  UNL1       -0.0372
     19 C          10.7483   -1.5146    0.0000 C.2     1  UNL1       -0.0648
     20 C           9.2492   -2.0537    0.0000 C.2     1  UNL1       -0.0583
     21 C           8.1192   -2.2118    0.0000 C.2     1  UNL1       -0.0553
     22 C           7.7782   -0.4701    0.0000 C.ar    1  UNL1       -0.0079
     23 C           7.7782    1.6078    0.0000 C.ar    1  UNL1       -0.0129
     24 C           6.8684    0.0459    0.0000 C.ar    1  UNL1        0.1979
     25 C           6.8684    1.0918    0.0000 C.ar    1  UNL1        0.1617
     26 C           6.3348   -1.7848    0.0000 C.3     1  UNL1        0.0372
     27 C           4.2665    0.5260    0.0000 C.3     1  UNL1        0.1992
     28 C           3.4044    0.0194    0.0000 C.2     1  UNL1        0.3296
     29 H           8.5775   -0.0205    0.0000 H       1  UNL1        0.0318
     30 H           7.9464   -0.4178    0.0000 H       1  UNL1        0.0318
     31 H          11.0256    0.9633    0.0000 H       1  UNL1        0.0430
     32 H          10.6271    1.6536    0.0000 H       1  UNL1        0.0430
     33 H          11.6916   -0.9138    0.0000 H       1  UNL1        0.0470
     34 H          11.5205   -0.1022    0.0000 H       1  UNL1        0.0470
     35 H           8.3861   -0.7448    0.0000 H       1  UNL1        0.0641
     36 H           9.9440    2.0480    0.0000 H       1  UNL1        0.0326
     37 H           9.1469    2.0480    0.0000 H       1  UNL1        0.0326
     38 H          11.0583   -2.0515    0.0000 H       1  UNL1        0.0588
     39 H           9.5579   -2.5914    0.0000 H       1  UNL1        0.0619
     40 H           7.7430   -2.7046    0.0000 H       1  UNL1        0.0598
     41 H           7.7854   -1.0900    0.0000 H       1  UNL1        0.0660
     42 H           7.7854    2.2278    0.0000 H       1  UNL1        0.0658
     43 H           5.8949   -1.3480    0.0000 H       1  UNL1        0.0524
     44 H           5.8980   -2.2248    0.0000 H       1  UNL1        0.0524
     45 H           6.7748   -2.2216    0.0000 H       1  UNL1        0.0524
     46 H           6.0024    2.2118    0.0000 H       1  UNL1        0.2923
     47 H           4.6614    1.0040    0.0000 H       1  UNL1        0.0653
     48 H           3.8644    0.9979    0.0000 H       1  UNL1        0.0653
     49 H           2.0000    0.1987    0.0000 H       1  UNL1        0.2951
@<TRIPOS>BOND
     1     1     3    1
     2     1     5    2
     3     1     6    2
     4     1    27    1
     5    16     2    1
     6     2    26    1
     7     3    24    1
     8     4    25    1
     9     4    46    1
    10     7    28    1
    11     7    49    1
    12     8    28    2
    13     9    10    1
    14     9    14    1
    15     9    15    1
    16    10    11    1
    17    10    12    1
    18    10    13    1
    19    11    16    1
    20    11    29    1
    21    11    30    1
    22    12    19    2
    23    12    20    1
    24    13    18   ar
    25    13    22   ar
    26    14    17    1
    27    14    31    1
    28    14    32    1
    29    15    19    1
    30    15    33    1
    31    15    34    1
    32    16    21    1
    33    16    35    1
    34    17    18    1
    35    17    36    1
    36    17    37    1
    37    18    23   ar
    38    19    38    1
    39    20    21    2
    40    20    39    1
    41    21    40    1
    42    22    24   ar
    43    22    41    1
    44    23    25   ar
    45    23    42    1
    46    24    25   ar
    47    26    43    1
    48    26    44    1
    49    26    45    1
    50    27    28    1
    51    27    47    1
    52    27    48    1
