@<TRIPOS>MOLECULE
IMPHY016381
 20 20 0 0 0
SMALL
GASTEIGER

@<TRIPOS>ATOM
      1 O           2.8660    1.7500    0.0000 O.2     1  UNL1       -0.2924
      2 C           3.7320    0.2500    0.0000 C.ar    1  UNL1        0.0174
      3 C           2.8660   -1.2500    0.0000 C.ar    1  UNL1       -0.0498
      4 C           2.8660   -0.2500    0.0000 C.ar    1  UNL1       -0.0484
      5 C           4.5981   -0.2500    0.0000 C.ar    1  UNL1       -0.0513
      6 C           3.7320   -1.7500    0.0000 C.ar    1  UNL1       -0.0588
      7 C           4.5981   -1.2500    0.0000 C.ar    1  UNL1       -0.0608
      8 C           3.7320    1.2500    0.0000 C.2     1  UNL1        0.1601
      9 C           2.0000   -1.7500    0.0000 C.3     1  UNL1       -0.0397
     10 C           4.5981    1.7500    0.0000 C.3     1  UNL1       -0.0014
     11 H           2.3291    0.0600    0.0000 H       1  UNL1        0.0627
     12 H           5.1350    0.0600    0.0000 H       1  UNL1        0.0624
     13 H           3.7320   -2.3700    0.0000 H       1  UNL1        0.0620
     14 H           5.1350   -1.5600    0.0000 H       1  UNL1        0.0618
     15 H           1.6900   -1.2131    0.0000 H       1  UNL1        0.0278
     16 H           1.4631   -2.0600    0.0000 H       1  UNL1        0.0278
     17 H           2.3100   -2.2869    0.0000 H       1  UNL1        0.0278
     18 H           4.9081    1.2131    0.0000 H       1  UNL1        0.0309
     19 H           5.1350    2.0600    0.0000 H       1  UNL1        0.0309
     20 H           4.2881    2.2869    0.0000 H       1  UNL1        0.0309
@<TRIPOS>BOND
     1     1     8    2
     2     2     4   ar
     3     2     5   ar
     4     2     8    1
     5     3     4   ar
     6     3     6   ar
     7     3     9    1
     8     4    11    1
     9     5     7   ar
    10     5    12    1
    11     6     7   ar
    12     6    13    1
    13     7    14    1
    14     8    10    1
    15     9    15    1
    16     9    16    1
    17     9    17    1
    18    10    18    1
    19    10    19    1
    20    10    20    1
