@<TRIPOS>MOLECULE
IMPHY014752
 76 83 0 0 0
SMALL
GASTEIGER

@<TRIPOS>ATOM
      1 O           5.5440    0.8943    0.0000 O.3     1  UNL1       -0.4482
      2 O           5.5440    2.9636    0.0000 O.3     1  UNL1       -0.4449
      3 O           3.7841    3.9290    0.0000 O.3     1  UNL1       -0.4913
      4 O           7.7201   -1.4020    0.0000 O.3     1  UNL1       -0.4945
      5 O           8.0095   -4.0101    0.0000 O.3     1  UNL1       -0.5062
      6 N           2.9021   -0.6403    0.0000 N.3     1  UNL1       -0.2977
      7 N           9.9133    1.4192    0.0000 N.3     1  UNL1       -0.3087
      8 C           3.8001   -0.1125    0.0000 C.3     1  UNL1        0.0432
      9 C           3.7841    0.9290    0.0000 C.ar    1  UNL1        0.0194
     10 C           2.9180    1.4290    0.0000 C.ar    1  UNL1       -0.0343
     11 C           2.0000   -0.1195    0.0000 C.3     1  UNL1        0.0032
     12 C           2.0080    0.9221    0.0000 C.3     1  UNL1       -0.0143
     13 C           4.0624   -1.0769    0.0000 C.3     1  UNL1       -0.0077
     14 C           9.0264    0.9161    0.0000 C.3     1  UNL1        0.0372
     15 C           4.6501    1.4290    0.0000 C.ar    1  UNL1        0.1792
     16 C           8.1513    1.4395    0.0000 C.ar    1  UNL1       -0.0233
     17 C           8.1513    2.4184    0.0000 C.ar    1  UNL1       -0.0378
     18 C           4.6501    2.4290    0.0000 C.ar    1  UNL1        0.2122
     19 C           9.0264    2.9418    0.0000 C.3     1  UNL1       -0.0147
     20 C           2.9180    2.4290    0.0000 C.ar    1  UNL1       -0.0125
     21 C           9.1492   -0.0757    0.0000 C.3     1  UNL1       -0.0081
     22 C           9.9133    2.4388    0.0000 C.3     1  UNL1        0.0004
     23 C           4.6595   -1.8782    0.0000 C.ar    1  UNL1       -0.0448
     24 C           2.9059   -1.6403    0.0000 C.3     1  UNL1       -0.0122
     25 C           6.4501    1.4082    0.0000 C.ar    1  UNL1        0.1710
     26 C           6.4501    2.4498    0.0000 C.ar    1  UNL1        0.1711
     27 C           7.3096    0.9397    0.0000 C.ar    1  UNL1       -0.0107
     28 C           3.7841    2.9290    0.0000 C.ar    1  UNL1        0.1661
     29 C           7.3096    2.9182    0.0000 C.ar    1  UNL1       -0.0121
     30 C           8.9002   -1.0436    0.0000 C.ar    1  UNL1       -0.0448
     31 C           5.5087   -2.4053    0.0000 C.ar    1  UNL1       -0.0472
     32 C           6.4918   -2.5847    0.0000 C.ar    1  UNL1        0.0275
     33 C           5.1136   -0.9985    0.0000 C.ar    1  UNL1       -0.0550
     34 C           7.4724   -2.3917    0.0000 C.ar    1  UNL1        0.0273
     35 C           8.3142   -1.8531    0.0000 C.ar    1  UNL1       -0.0472
     36 C           6.7459   -1.6279    0.0000 C.ar    1  UNL1        0.1279
     37 C           9.4980   -1.8328    0.0000 C.ar    1  UNL1       -0.0550
     38 C           6.0966   -0.8805    0.0000 C.ar    1  UNL1       -0.0191
     39 C           8.2260   -3.0338    0.0000 C.ar    1  UNL1        0.1247
     40 C           9.1804   -2.7704    0.0000 C.ar    1  UNL1       -0.0193
     41 C           2.9180    4.4290    0.0000 C.3     1  UNL1        0.0790
     42 C           8.0115   -0.4454    0.0000 C.3     1  UNL1        0.0788
     43 H           4.5329    0.3181    0.0000 H       1  UNL1        0.0516
     44 H           1.3900   -0.0087    0.0000 H       1  UNL1        0.0430
     45 H           1.7864   -0.7015    0.0000 H       1  UNL1        0.0430
     46 H           1.8035    1.5074    0.0000 H       1  UNL1        0.0326
     47 H           1.3964    0.8207    0.0000 H       1  UNL1        0.0326
     48 H           3.4478   -0.9946    0.0000 H       1  UNL1        0.0332
     49 H           4.6198   -0.8056    0.0000 H       1  UNL1        0.0332
     50 H           9.7858    0.5343    0.0000 H       1  UNL1        0.0513
     51 H           9.4200    3.4208    0.0000 H       1  UNL1        0.0326
     52 H           8.6218    3.4116    0.0000 H       1  UNL1        0.0326
     53 H           2.3811    2.7390    0.0000 H       1  UNL1        0.0658
     54 H           9.6426   -0.4511    0.0000 H       1  UNL1        0.0332
     55 H           8.5304   -0.0358    0.0000 H       1  UNL1        0.0332
     56 H          10.5242    2.3327    0.0000 H       1  UNL1        0.0427
     57 H          10.1224    3.0225    0.0000 H       1  UNL1        0.0427
     58 H           2.2859   -1.6427    0.0000 H       1  UNL1        0.0391
     59 H           2.9083   -2.2603    0.0000 H       1  UNL1        0.0391
     60 H           3.5259   -1.6379    0.0000 H       1  UNL1        0.0391
     61 H          10.4490    1.1071    0.0000 H       1  UNL1        0.1225
     62 H           7.3210    0.3198    0.0000 H       1  UNL1        0.0659
     63 H           7.3210    3.5382    0.0000 H       1  UNL1        0.0658
     64 H           5.2856   -2.9838    0.0000 H       1  UNL1        0.0627
     65 H           4.7600   -0.4892    0.0000 H       1  UNL1        0.0621
     66 H           8.7398   -2.3039    0.0000 H       1  UNL1        0.0627
     67 H          10.1100   -1.7335    0.0000 H       1  UNL1        0.0621
     68 H           6.3196   -0.3020    0.0000 H       1  UNL1        0.0654
     69 H           9.6060   -3.2212    0.0000 H       1  UNL1        0.0654
     70 H           3.2280    4.9659    0.0000 H       1  UNL1        0.0660
     71 H           2.3811    4.7390    0.0000 H       1  UNL1        0.0660
     72 H           2.6080    3.8920    0.0000 H       1  UNL1        0.0660
     73 H           8.4666   -4.4290    0.0000 H       1  UNL1        0.2922
     74 H           8.6046   -0.6260    0.0000 H       1  UNL1        0.0660
     75 H           8.1922    0.1477    0.0000 H       1  UNL1        0.0660
     76 H           7.4184   -0.2647    0.0000 H       1  UNL1        0.0660
@<TRIPOS>BOND
     1     1    15    1
     2     1    25    1
     3     2    18    1
     4     2    26    1
     5     3    28    1
     6     3    41    1
     7     4    36    1
     8     4    42    1
     9     5    39    1
    10     5    73    1
    11     6     8    1
    12     6    11    1
    13     6    24    1
    14     7    14    1
    15     7    22    1
    16     7    61    1
    17     8     9    1
    18     8    13    1
    19     8    43    1
    20     9    10   ar
    21     9    15   ar
    22    10    12    1
    23    10    20   ar
    24    11    12    1
    25    11    44    1
    26    11    45    1
    27    12    46    1
    28    12    47    1
    29    13    23    1
    30    13    48    1
    31    13    49    1
    32    14    16    1
    33    14    21    1
    34    14    50    1
    35    15    18   ar
    36    16    17   ar
    37    16    27   ar
    38    17    19    1
    39    17    29   ar
    40    18    28   ar
    41    19    22    1
    42    19    51    1
    43    19    52    1
    44    20    28   ar
    45    20    53    1
    46    21    30    1
    47    21    54    1
    48    21    55    1
    49    22    56    1
    50    22    57    1
    51    23    31   ar
    52    23    33   ar
    53    24    58    1
    54    24    59    1
    55    24    60    1
    56    25    26   ar
    57    25    27   ar
    58    26    29   ar
    59    27    62    1
    60    29    63    1
    61    30    35   ar
    62    30    37   ar
    63    31    32   ar
    64    31    64    1
    65    32    34    1
    66    32    36   ar
    67    33    38   ar
    68    33    65    1
    69    34    35   ar
    70    34    39   ar
    71    35    66    1
    72    36    38   ar
    73    37    40   ar
    74    37    67    1
    75    38    68    1
    76    39    40   ar
    77    40    69    1
    78    41    70    1
    79    41    71    1
    80    41    72    1
    81    42    74    1
    82    42    75    1
    83    42    76    1
