@<TRIPOS>MOLECULE
IMPHY015651
 38 39 0 0 0
SMALL
GASTEIGER

@<TRIPOS>ATOM
      1 O           4.5981    2.0173    0.0000 O.2     1  UNL1       -0.2924
      2 C           5.4641   -0.4827    0.0000 C.3     1  UNL1       -0.0009
      3 C           6.3580   -1.0174    0.0000 C.3     1  UNL1       -0.0341
      4 C           4.5981   -0.9827    0.0000 C.3     1  UNL1       -0.0364
      5 C           5.4641    0.5173    0.0000 C.2     1  UNL1       -0.0027
      6 C           3.7320   -0.4827    0.0000 C.3     1  UNL1       -0.0126
      7 C           7.2641   -0.5035    0.0000 C.3     1  UNL1       -0.0462
      8 C           5.4641   -1.4827    0.0000 C.3     1  UNL1       -0.0552
      9 C           3.7320    0.5173    0.0000 C.3     1  UNL1        0.0167
     10 C           7.2641    0.5381    0.0000 C.3     1  UNL1       -0.0338
     11 C           4.5981    1.0173    0.0000 C.2     1  UNL1        0.1600
     12 C           6.3580    1.0520    0.0000 C.2     1  UNL1       -0.0770
     13 C           6.3465   -2.0173    0.0000 C.3     1  UNL1       -0.0616
     14 C           2.8660   -0.9827    0.0000 C.2     1  UNL1       -0.0762
     15 C           2.0000   -0.4827    0.0000 C.3     1  UNL1       -0.0438
     16 C           2.8660   -1.9827    0.0000 C.2     1  UNL1       -0.0994
     17 H           6.8920   -1.3325    0.0000 H       1  UNL1        0.0307
     18 H           4.1996   -1.4576    0.0000 H       1  UNL1        0.0280
     19 H           4.9966   -1.4576    0.0000 H       1  UNL1        0.0280
     20 H           3.7320   -1.1027    0.0000 H       1  UNL1        0.0350
     21 H           7.4732   -1.0872    0.0000 H       1  UNL1        0.0271
     22 H           7.8750   -0.3974    0.0000 H       1  UNL1        0.0271
     23 H           4.8441   -1.4827    0.0000 H       1  UNL1        0.0238
     24 H           5.4641   -2.1027    0.0000 H       1  UNL1        0.0238
     25 H           6.0841   -1.4827    0.0000 H       1  UNL1        0.0238
     26 H           3.5200    1.0999    0.0000 H       1  UNL1        0.0351
     27 H           3.1215    0.4096    0.0000 H       1  UNL1        0.0351
     28 H           7.8750    0.4320    0.0000 H       1  UNL1        0.0308
     29 H           7.4732    1.1218    0.0000 H       1  UNL1        0.0308
     30 H           6.3509    1.6719    0.0000 H       1  UNL1        0.0576
     31 H           5.7265   -2.0101    0.0000 H       1  UNL1        0.0233
     32 H           6.3393   -2.6373    0.0000 H       1  UNL1        0.0233
     33 H           6.9664   -2.0245    0.0000 H       1  UNL1        0.0233
     34 H           2.3100    0.0542    0.0000 H       1  UNL1        0.0274
     35 H           1.4631   -0.1727    0.0000 H       1  UNL1        0.0274
     36 H           1.6900   -1.0196    0.0000 H       1  UNL1        0.0274
     37 H           2.3291   -2.2927    0.0000 H       1  UNL1        0.0534
     38 H           3.4030   -2.2927    0.0000 H       1  UNL1        0.0534
@<TRIPOS>BOND
     1     1    11    2
     2     2     3    1
     3     2     4    1
     4     2     5    1
     5     2     8    1
     6     3     7    1
     7     3    13    1
     8     3    17    1
     9     4     6    1
    10     4    18    1
    11     4    19    1
    12     5    11    1
    13     5    12    2
    14     6     9    1
    15     6    14    1
    16     6    20    1
    17     7    10    1
    18     7    21    1
    19     7    22    1
    20     8    23    1
    21     8    24    1
    22     8    25    1
    23     9    11    1
    24     9    26    1
    25     9    27    1
    26    10    12    1
    27    10    28    1
    28    10    29    1
    29    12    30    1
    30    13    31    1
    31    13    32    1
    32    13    33    1
    33    14    15    1
    34    14    16    2
    35    15    34    1
    36    15    35    1
    37    15    36    1
    38    16    37    1
    39    16    38    1
