@<TRIPOS>MOLECULE
IMPHY001540
 31 30 0 0 0
SMALL
GASTEIGER

@<TRIPOS>ATOM
      1 O           5.4641    1.0000    0.0000 O.3     1  UNL1       -0.4572
      2 O           6.3301   -0.5000    0.0000 O.2     1  UNL1       -0.2453
      3 C           2.8660   -0.5000    0.0000 C.3     1  UNL1       -0.0349
      4 C           2.0000   -1.0000    0.0000 C.3     1  UNL1       -0.0525
      5 C           2.8660    0.5000    0.0000 C.2     1  UNL1       -0.0848
      6 C           2.0000   -2.0000    0.0000 C.3     1  UNL1       -0.0650
      7 C           3.7320    1.0000    0.0000 C.2     1  UNL1       -0.0509
      8 C           4.5981    0.5000    0.0000 C.3     1  UNL1        0.1110
      9 C           7.1962    1.0000    0.0000 C.2     1  UNL1        0.0293
     10 C           6.3301    0.5000    0.0000 C.2     1  UNL1        0.3349
     11 C           7.1962    2.0000    0.0000 C.3     1  UNL1       -0.0333
     12 C           8.0622    0.5000    0.0000 C.2     1  UNL1       -0.0774
     13 C           8.9282    1.0000    0.0000 C.3     1  UNL1       -0.0461
     14 H           3.0781   -1.0826    0.0000 H       1  UNL1        0.0307
     15 H           3.4766   -0.3923    0.0000 H       1  UNL1        0.0307
     16 H           1.7880   -0.4174    0.0000 H       1  UNL1        0.0266
     17 H           1.3894   -1.1077    0.0000 H       1  UNL1        0.0266
     18 H           2.3291    0.8100    0.0000 H       1  UNL1        0.0570
     19 H           1.3800   -2.0000    0.0000 H       1  UNL1        0.0230
     20 H           2.0000   -2.6200    0.0000 H       1  UNL1        0.0230
     21 H           2.6200   -2.0000    0.0000 H       1  UNL1        0.0230
     22 H           3.7320    1.6200    0.0000 H       1  UNL1        0.0602
     23 H           4.1996    0.0251    0.0000 H       1  UNL1        0.0743
     24 H           4.9966    0.0251    0.0000 H       1  UNL1        0.0743
     25 H           7.8162    2.0000    0.0000 H       1  UNL1        0.0280
     26 H           7.1962    2.6200    0.0000 H       1  UNL1        0.0280
     27 H           6.5762    2.0000    0.0000 H       1  UNL1        0.0280
     28 H           8.0622   -0.1200    0.0000 H       1  UNL1        0.0574
     29 H           9.2382    0.4631    0.0000 H       1  UNL1        0.0272
     30 H           9.4651    1.3100    0.0000 H       1  UNL1        0.0272
     31 H           8.6182    1.5369    0.0000 H       1  UNL1        0.0272
@<TRIPOS>BOND
     1     1     8    1
     2     1    10    1
     3     2    10    2
     4     3     4    1
     5     3     5    1
     6     3    14    1
     7     3    15    1
     8     4     6    1
     9     4    16    1
    10     4    17    1
    11     5     7    2
    12     5    18    1
    13     6    19    1
    14     6    20    1
    15     6    21    1
    16     7     8    1
    17     7    22    1
    18     8    23    1
    19     8    24    1
    20     9    10    1
    21     9    11    1
    22     9    12    2
    23    11    25    1
    24    11    26    1
    25    11    27    1
    26    12    13    1
    27    12    28    1
    28    13    29    1
    29    13    30    1
    30    13    31    1
