@<TRIPOS>MOLECULE
IMPHY007372
 86 90 0 0 0
SMALL
GASTEIGER

@<TRIPOS>ATOM
      1 O           3.7320   -2.5933    0.0000 O.3     1  UNL1       -0.4610
      2 O           2.8718   -1.0900    0.0000 O.2     1  UNL1       -0.2512
      3 C           7.3931   -0.5410    0.0000 C.3     1  UNL1       -0.0262
      4 C           6.4831   -1.0478    0.0000 C.3     1  UNL1       -0.0249
      5 C           8.2591   -1.0410    0.0000 C.3     1  UNL1       -0.0072
      6 C           9.1251    0.4590    0.0000 C.3     1  UNL1       -0.0072
      7 C           6.4750   -2.0894    0.0000 C.3     1  UNL1       -0.0268
      8 C          10.0191    0.9937    0.0000 C.3     1  UNL1       -0.0258
      9 C           9.1251   -0.5410    0.0000 C.2     1  UNL1       -0.0611
     10 C           7.3931    0.4590    0.0000 C.3     1  UNL1       -0.0481
     11 C           8.2752   -2.0825    0.0000 C.3     1  UNL1       -0.0433
     12 C          10.9251    0.4799    0.0000 C.3     1  UNL1       -0.0250
     13 C           8.2591    0.9590    0.0000 C.3     1  UNL1       -0.0433
     14 C           5.5396   -2.6391    0.0000 C.3     1  UNL1        0.0055
     15 C           7.3771   -2.6102    0.0000 C.3     1  UNL1       -0.0483
     16 C           5.5562   -0.4837    0.0000 C.3     1  UNL1       -0.0437
     17 C           9.9940    2.0784    0.0000 C.3     1  UNL1       -0.0437
     18 C           4.6000   -2.0966    0.0000 C.3     1  UNL1        0.1084
     19 C          10.9251   -0.5618    0.0000 C.3     1  UNL1       -0.0288
     20 C           6.4908   -0.0478    0.0000 C.3     1  UNL1       -0.0590
     21 C           9.1251   -1.5410    0.0000 C.3     1  UNL1       -0.0556
     22 C           4.6084   -1.0117    0.0000 C.3     1  UNL1       -0.0146
     23 C          10.0191   -1.0756    0.0000 C.2     1  UNL1       -0.0832
     24 C          11.8689    1.0151    0.0000 C.3     1  UNL1       -0.0466
     25 C          10.9251    2.6353    0.0000 C.3     1  UNL1       -0.0346
     26 C           9.1251    1.4590    0.0000 C.3     1  UNL1       -0.0556
     27 C          11.8689    2.1001    0.0000 C.3     1  UNL1       -0.0473
     28 C          11.7950   -0.0135    0.0000 C.3     1  UNL1       -0.0590
     29 C           5.0430   -3.5071    0.0000 C.3     1  UNL1       -0.0562
     30 C           6.0430   -3.5032    0.0000 C.3     1  UNL1       -0.0562
     31 C          11.4151    3.5071    0.0000 C.3     1  UNL1       -0.0598
     32 C          10.4152    3.4955    0.0000 C.3     1  UNL1       -0.0598
     33 C           2.8680   -2.0900    0.0000 C.2     1  UNL1        0.3042
     34 C           2.0000   -2.5866    0.0000 C.3     1  UNL1        0.0332
     35 H           8.1292   -0.1160    0.0000 H       1  UNL1        0.0314
     36 H           6.4783   -2.9394    0.0000 H       1  UNL1        0.0312
     37 H          10.7485    1.4300    0.0000 H       1  UNL1        0.0315
     38 H           7.1810    1.0416    0.0000 H       1  UNL1        0.0269
     39 H           6.7825    0.3514    0.0000 H       1  UNL1        0.0269
     40 H           8.4932   -2.6629    0.0000 H       1  UNL1        0.0274
     41 H           8.8843   -1.9670    0.0000 H       1  UNL1        0.0274
     42 H           8.6576    1.4340    0.0000 H       1  UNL1        0.0274
     43 H           7.8606    1.4340    0.0000 H       1  UNL1        0.0274
     44 H           6.9798   -3.0862    0.0000 H       1  UNL1        0.0269
     45 H           7.7781   -3.0831    0.0000 H       1  UNL1        0.0269
     46 H           5.9644   -0.0171    0.0000 H       1  UNL1        0.0272
     47 H           5.1663   -0.0017    0.0000 H       1  UNL1        0.0272
     48 H           9.7715    2.6571    0.0000 H       1  UNL1        0.0274
     49 H           9.3857    1.9582    0.0000 H       1  UNL1        0.0274
     50 H           4.5988   -2.7166    0.0000 H       1  UNL1        0.0739
     51 H          11.1342   -1.1455    0.0000 H       1  UNL1        0.0313
     52 H          11.5360   -0.4557    0.0000 H       1  UNL1        0.0313
     53 H           7.1108   -0.0526    0.0000 H       1  UNL1        0.0235
     54 H           6.4956    0.5721    0.0000 H       1  UNL1        0.0235
     55 H           5.8708   -0.0431    0.0000 H       1  UNL1        0.0235
     56 H           8.8151   -2.0779    0.0000 H       1  UNL1        0.0238
     57 H           9.6621   -1.8510    0.0000 H       1  UNL1        0.0238
     58 H           9.4351   -1.0040    0.0000 H       1  UNL1        0.0238
     59 H           4.4038   -0.4264    0.0000 H       1  UNL1        0.0301
     60 H           3.9967   -1.1131    0.0000 H       1  UNL1        0.0301
     61 H          10.0119   -1.6956    0.0000 H       1  UNL1        0.0572
     62 H          12.0780    0.4314    0.0000 H       1  UNL1        0.0271
     63 H          12.4798    1.1212    0.0000 H       1  UNL1        0.0271
     64 H           9.7451    1.4590    0.0000 H       1  UNL1        0.0238
     65 H           9.1251    2.0790    0.0000 H       1  UNL1        0.0238
     66 H           8.5051    1.4590    0.0000 H       1  UNL1        0.0238
     67 H          12.4798    1.9940    0.0000 H       1  UNL1        0.0271
     68 H          12.0780    2.6838    0.0000 H       1  UNL1        0.0271
     69 H          11.4891   -0.5528    0.0000 H       1  UNL1        0.0235
     70 H          12.3343   -0.3193    0.0000 H       1  UNL1        0.0235
     71 H          12.1008    0.5259    0.0000 H       1  UNL1        0.0235
     72 H           4.5048   -3.1992    0.0000 H       1  UNL1        0.0236
     73 H           4.7350   -4.0452    0.0000 H       1  UNL1        0.0236
     74 H           5.5811   -3.8150    0.0000 H       1  UNL1        0.0236
     75 H           5.5072   -3.8153    0.0000 H       1  UNL1        0.0236
     76 H           6.3550   -4.0390    0.0000 H       1  UNL1        0.0236
     77 H           6.5787   -3.1912    0.0000 H       1  UNL1        0.0236
     78 H          11.9556    3.2033    0.0000 H       1  UNL1        0.0235
     79 H          11.7189    4.0476    0.0000 H       1  UNL1        0.0235
     80 H          10.8746    3.8108    0.0000 H       1  UNL1        0.0235
     81 H          10.9485    3.8117    0.0000 H       1  UNL1        0.0235
     82 H          10.0990    4.0288    0.0000 H       1  UNL1        0.0235
     83 H           9.8818    3.1793    0.0000 H       1  UNL1        0.0235
     84 H           1.6921   -2.0485    0.0000 H       1  UNL1        0.0342
     85 H           1.4619   -2.8945    0.0000 H       1  UNL1        0.0342
     86 H           2.3079   -3.1247    0.0000 H       1  UNL1        0.0342
@<TRIPOS>BOND
     1    18     1    1
     2     1    33    1
     3     2    33    2
     4     3     4    1
     5     3     5    1
     6     3    10    1
     7     3    35    1
     8     4     7    1
     9     4    16    1
    10     4    20    1
    11     5     9    1
    12     5    11    1
    13     5    21    1
    14     6     8    1
    15     6     9    1
    16     6    13    1
    17     6    26    1
    18     7    14    1
    19     7    15    1
    20     7    36    1
    21     8    12    1
    22     8    17    1
    23     8    37    1
    24     9    23    2
    25    10    13    1
    26    10    38    1
    27    10    39    1
    28    11    15    1
    29    11    40    1
    30    11    41    1
    31    12    19    1
    32    12    24    1
    33    12    28    1
    34    13    42    1
    35    13    43    1
    36    14    18    1
    37    14    29    1
    38    14    30    1
    39    15    44    1
    40    15    45    1
    41    16    22    1
    42    16    46    1
    43    16    47    1
    44    17    25    1
    45    17    48    1
    46    17    49    1
    47    18    22    1
    48    18    50    1
    49    19    23    1
    50    19    51    1
    51    19    52    1
    52    20    53    1
    53    20    54    1
    54    20    55    1
    55    21    56    1
    56    21    57    1
    57    21    58    1
    58    22    59    1
    59    22    60    1
    60    23    61    1
    61    24    27    1
    62    24    62    1
    63    24    63    1
    64    25    27    1
    65    25    31    1
    66    25    32    1
    67    26    64    1
    68    26    65    1
    69    26    66    1
    70    27    67    1
    71    27    68    1
    72    28    69    1
    73    28    70    1
    74    28    71    1
    75    29    72    1
    76    29    73    1
    77    29    74    1
    78    30    75    1
    79    30    76    1
    80    30    77    1
    81    31    78    1
    82    31    79    1
    83    31    80    1
    84    32    81    1
    85    32    82    1
    86    32    83    1
    87    33    34    1
    88    34    84    1
    89    34    85    1
    90    34    86    1
