@<TRIPOS>MOLECULE
IMPHY009405
 54 57 0 0 0
SMALL
GASTEIGER

@<TRIPOS>ATOM
      1 O           5.5141    2.0243    0.0000 O.3     1  UNL1       -0.4808
      2 O           3.7702   -1.0519    0.0000 O.2     1  UNL1       -0.4212
      3 O           7.2622   -1.0172    0.0000 O.3     1  UNL1       -0.5052
      4 O           4.6641   -2.5172    0.0000 O.2     1  UNL1       -0.2915
      5 O           2.0000   -1.0414    0.0000 O.2     1  UNL1       -0.2452
      6 C           6.4121    2.5520    0.0000 C.3     1  UNL1        0.1235
      7 C           5.5301    0.9828    0.0000 C.ar    1  UNL1        0.1436
      8 C           4.6641    0.4828    0.0000 C.ar    1  UNL1        0.0685
      9 C           6.3961    0.4828    0.0000 C.ar    1  UNL1        0.0594
     10 C           5.5301   -1.0172    0.0000 C.ar    1  UNL1        0.1027
     11 C           4.6641   -0.5172    0.0000 C.ar    1  UNL1        0.1572
     12 C           6.3961   -0.5172    0.0000 C.ar    1  UNL1        0.1415
     13 C           6.3961   -2.5172    0.0000 C.3     1  UNL1        0.0193
     14 C           7.3142    2.0312    0.0000 C.2     1  UNL1       -0.0408
     15 C           7.3062    0.9896    0.0000 C.2     1  UNL1       -0.0478
     16 C           5.5301   -2.0172    0.0000 C.2     1  UNL1        0.1730
     17 C           3.7702    1.0174    0.0000 C.ar    1  UNL1        0.0031
     18 C           6.9088    3.4200    0.0000 C.3     1  UNL1       -0.0215
     19 C           5.9088    3.4161    0.0000 C.3     1  UNL1       -0.0215
     20 C           6.3961   -3.5172    0.0000 C.3     1  UNL1       -0.0463
     21 C           7.2622   -2.0172    0.0000 C.3     1  UNL1       -0.0554
     22 C           3.7817    2.0174    0.0000 C.ar    1  UNL1       -0.0169
     23 C           2.8641    0.5036    0.0000 C.ar    1  UNL1        0.0314
     24 C           2.8641   -0.5380    0.0000 C.ar    1  UNL1        0.3378
     25 C           7.2622   -4.0172    0.0000 C.3     1  UNL1       -0.0646
     26 C           4.6535    2.5073    0.0000 C.ar    1  UNL1       -0.0540
     27 C           2.9215    2.5273    0.0000 C.ar    1  UNL1       -0.0540
     28 C           4.6650    3.5072    0.0000 C.ar    1  UNL1       -0.0612
     29 C           2.9331    3.5273    0.0000 C.ar    1  UNL1       -0.0612
     30 C           3.8048    4.0172    0.0000 C.ar    1  UNL1       -0.0617
     31 H           6.9331   -2.8272    0.0000 H       1  UNL1        0.0378
     32 H           7.8523    2.3391    0.0000 H       1  UNL1        0.0611
     33 H           7.8395    0.6734    0.0000 H       1  UNL1        0.0624
     34 H           6.4445    3.7282    0.0000 H       1  UNL1        0.0271
     35 H           7.4469    3.1120    0.0000 H       1  UNL1        0.0271
     36 H           7.2167    3.9581    0.0000 H       1  UNL1        0.0271
     37 H           6.3706    3.7279    0.0000 H       1  UNL1        0.0271
     38 H           5.5967    3.9519    0.0000 H       1  UNL1        0.0271
     39 H           5.3730    3.1040    0.0000 H       1  UNL1        0.0271
     40 H           5.7856   -3.4096    0.0000 H       1  UNL1        0.0269
     41 H           6.1841   -4.0998    0.0000 H       1  UNL1        0.0269
     42 H           7.5722   -2.5542    0.0000 H       1  UNL1        0.0237
     43 H           7.7991   -1.7072    0.0000 H       1  UNL1        0.0237
     44 H           6.9522   -1.4803    0.0000 H       1  UNL1        0.0237
     45 H           2.3284    0.8157    0.0000 H       1  UNL1        0.0695
     46 H           6.9522   -4.5542    0.0000 H       1  UNL1        0.0230
     47 H           7.7991   -4.3272    0.0000 H       1  UNL1        0.0230
     48 H           7.5722   -3.4803    0.0000 H       1  UNL1        0.0230
     49 H           7.7991   -0.7072    0.0000 H       1  UNL1        0.2922
     50 H           5.1868    2.1911    0.0000 H       1  UNL1        0.0624
     51 H           2.3810    2.2236    0.0000 H       1  UNL1        0.0624
     52 H           5.2055    3.8110    0.0000 H       1  UNL1        0.0618
     53 H           2.3998    3.8435    0.0000 H       1  UNL1        0.0618
     54 H           3.8120    4.6372    0.0000 H       1  UNL1        0.0618
@<TRIPOS>BOND
     1     1     6    1
     2     1     7    1
     3     2    11   ar
     4     2    24   ar
     5     3    12    1
     6     3    49    1
     7     4    16    2
     8     5    24    2
     9     6    14    1
    10     6    18    1
    11     6    19    1
    12     7     8   ar
    13     7     9   ar
    14     8    11   ar
    15     8    17   ar
    16     9    12   ar
    17     9    15    1
    18    10    11   ar
    19    10    12   ar
    20    10    16    1
    21    13    16    1
    22    13    20    1
    23    13    21    1
    24    13    31    1
    25    14    15    2
    26    14    32    1
    27    15    33    1
    28    17    22    1
    29    17    23   ar
    30    18    35    1
    31    18    36    1
    32    18    37    1
    33    19    34    1
    34    19    38    1
    35    19    39    1
    36    20    25    1
    37    20    40    1
    38    20    41    1
    39    21    42    1
    40    21    43    1
    41    21    44    1
    42    22    26   ar
    43    22    27   ar
    44    23    24   ar
    45    23    45    1
    46    25    46    1
    47    25    47    1
    48    25    48    1
    49    26    28   ar
    50    26    50    1
    51    27    29   ar
    52    27    51    1
    53    28    30   ar
    54    28    52    1
    55    29    30   ar
    56    29    53    1
    57    30    54    1
