@<TRIPOS>MOLECULE
IMPHY002123
 40 40 0 0 0
SMALL
GASTEIGER

@<TRIPOS>ATOM
      1 O           6.0010    2.2500    0.0000 O.2     1  UNL1       -0.2968
      2 C           5.1350    0.7500    0.0000 C.3     1  UNL1        0.0204
      3 C           6.0010    0.2500    0.0000 C.3     1  UNL1       -0.0372
      4 C           4.2690    0.2500    0.0000 C.3     1  UNL1       -0.0396
      5 C           4.2690   -0.7500    0.0000 C.3     1  UNL1       -0.0314
      6 C           5.1350    1.7500    0.0000 C.2     1  UNL1        0.1406
      7 C           4.2690    2.2500    0.0000 C.3     1  UNL1        0.0270
      8 C           6.8671    0.7500    0.0000 C.3     1  UNL1       -0.0620
      9 C           6.0010   -0.7500    0.0000 C.3     1  UNL1       -0.0620
     10 C           3.4030   -1.2500    0.0000 C.2     1  UNL1       -0.0765
     11 C           3.4030    1.7500    0.0000 C.2     1  UNL1       -0.0692
     12 C           3.4030    0.7500    0.0000 C.3     1  UNL1       -0.0282
     13 C           2.5369    0.2500    0.0000 C.3     1  UNL1       -0.0308
     14 C           2.5369   -0.7500    0.0000 C.2     1  UNL1       -0.0847
     15 C           3.4030   -2.2500    0.0000 C.3     1  UNL1       -0.0438
     16 C           2.5369    2.2500    0.0000 C.2     1  UNL1       -0.0990
     17 H           5.1350    0.1300    0.0000 H       1  UNL1        0.0380
     18 H           6.5380   -0.0600    0.0000 H       1  UNL1        0.0302
     19 H           4.0569    0.8326    0.0000 H       1  UNL1        0.0275
     20 H           3.6584    0.1423    0.0000 H       1  UNL1        0.0275
     21 H           4.4810   -1.3326    0.0000 H       1  UNL1        0.0310
     22 H           4.8796   -0.6423    0.0000 H       1  UNL1        0.0310
     23 H           4.6675    2.7250    0.0000 H       1  UNL1        0.0387
     24 H           3.8705    2.7250    0.0000 H       1  UNL1        0.0387
     25 H           5.3810   -0.7500    0.0000 H       1  UNL1        0.0233
     26 H           6.0010   -1.3700    0.0000 H       1  UNL1        0.0233
     27 H           6.6210   -0.7500    0.0000 H       1  UNL1        0.0233
     28 H           7.1771    0.2131    0.0000 H       1  UNL1        0.0233
     29 H           7.4040    1.0600    0.0000 H       1  UNL1        0.0233
     30 H           6.5571    1.2869    0.0000 H       1  UNL1        0.0233
     31 H           3.6150    0.1674    0.0000 H       1  UNL1        0.0313
     32 H           4.0135    0.8577    0.0000 H       1  UNL1        0.0313
     33 H           2.3249    0.8326    0.0000 H       1  UNL1        0.0310
     34 H           1.9264    0.1423    0.0000 H       1  UNL1        0.0310
     35 H           2.0000   -1.0600    0.0000 H       1  UNL1        0.0572
     36 H           2.7830   -2.2500    0.0000 H       1  UNL1        0.0274
     37 H           3.4030   -2.8700    0.0000 H       1  UNL1        0.0274
     38 H           4.0230   -2.2500    0.0000 H       1  UNL1        0.0274
     39 H           2.5369    2.8700    0.0000 H       1  UNL1        0.0535
     40 H           2.0000    1.9400    0.0000 H       1  UNL1        0.0535
@<TRIPOS>BOND
     1     1     6    2
     2     2     3    1
     3     2     4    1
     4     2     6    1
     5     2    17    1
     6     3     8    1
     7     3     9    1
     8     3    18    1
     9     4     5    1
    10     4    19    1
    11     4    20    1
    12     5    10    1
    13     5    21    1
    14     5    22    1
    15     6     7    1
    16     7    11    1
    17     7    23    1
    18     7    24    1
    19     8    28    1
    20     8    29    1
    21     8    30    1
    22     9    25    1
    23     9    26    1
    24     9    27    1
    25    10    14    2
    26    10    15    1
    27    11    12    1
    28    11    16    2
    29    12    13    1
    30    12    31    1
    31    12    32    1
    32    13    14    1
    33    13    33    1
    34    13    34    1
    35    14    35    1
    36    15    36    1
    37    15    37    1
    38    15    38    1
    39    16    39    1
    40    16    40    1
