@<TRIPOS>MOLECULE
IMPHY015124
 42 45 0 0 0
SMALL
GASTEIGER

@<TRIPOS>ATOM
      1 O           9.5828    0.2437    0.0000 O.2     1  UNL1       -0.2756
      2 N           3.7360   -0.1774    0.0000 N.3     1  UNL1       -0.2988
      3 N           7.8349   -0.0363    0.0000 N.am    1  UNL1       -0.2978
      4 C           6.0449    1.0950    0.0000 C.3     1  UNL1       -0.0092
      5 C           5.7861    0.1290    0.0000 C.3     1  UNL1       -0.0092
      6 C           4.0117    0.7838    0.0000 C.3     1  UNL1        0.0147
      7 C           5.3083    2.0776    0.0000 C.3     1  UNL1       -0.0417
      8 C           7.0578   -0.6656    0.0000 C.3     1  UNL1        0.0300
      9 C           4.5650   -0.7366    0.0000 C.3     1  UNL1        0.0037
     10 C           7.4765    0.8973    0.0000 C.3     1  UNL1        0.0192
     11 C           3.2997    1.5442    0.0000 C.3     1  UNL1       -0.0370
     12 C           7.2048   -1.6968    0.0000 C.3     1  UNL1       -0.0336
     13 C           2.7293   -0.4450    0.0000 C.3     1  UNL1       -0.0008
     14 C           2.2871    1.3000    0.0000 C.3     1  UNL1       -0.0505
     15 C           2.0000    0.2987    0.0000 C.3     1  UNL1       -0.0401
     16 C           8.1744   -2.0776    0.0000 C.3     1  UNL1       -0.0431
     17 C           8.8130   -0.3945    0.0000 C.2     1  UNL1        0.2158
     18 C           8.9839   -1.4220    0.0000 C.3     1  UNL1        0.0242
     19 H           6.2649    1.9160    0.0000 H       1  UNL1        0.0331
     20 H           5.5661   -0.6920    0.0000 H       1  UNL1        0.0331
     21 H           4.2460    1.6009    0.0000 H       1  UNL1        0.0466
     22 H           5.6261    2.6099    0.0000 H       1  UNL1        0.0273
     23 H           4.6951    2.1695    0.0000 H       1  UNL1        0.0273
     24 H           6.3972   -1.2005    0.0000 H       1  UNL1        0.0503
     25 H           4.1592   -1.2053    0.0000 H       1  UNL1        0.0430
     26 H           4.9817   -1.1958    0.0000 H       1  UNL1        0.0430
     27 H           8.0844    1.0196    0.0000 H       1  UNL1        0.0468
     28 H           7.4575    1.5170    0.0000 H       1  UNL1        0.0468
     29 H           3.8181    1.8842    0.0000 H       1  UNL1        0.0280
     30 H           3.0534    2.1131    0.0000 H       1  UNL1        0.0280
     31 H           6.5851   -1.6780    0.0000 H       1  UNL1        0.0283
     32 H           7.0803   -2.3042    0.0000 H       1  UNL1        0.0283
     33 H           2.2189   -0.7969    0.0000 H       1  UNL1        0.0427
     34 H           2.9888   -1.0081    0.0000 H       1  UNL1        0.0427
     35 H           2.2470    1.9187    0.0000 H       1  UNL1        0.0266
     36 H           1.6707    1.3664    0.0000 H       1  UNL1        0.0266
     37 H           1.4420    0.5691    0.0000 H       1  UNL1        0.0278
     38 H           1.6382   -0.2048    0.0000 H       1  UNL1        0.0278
     39 H           7.8523   -2.6074    0.0000 H       1  UNL1        0.0270
     40 H           8.6412   -2.4855    0.0000 H       1  UNL1        0.0270
     41 H           9.2858   -1.9635    0.0000 H       1  UNL1        0.0358
     42 H           9.5690   -1.2172    0.0000 H       1  UNL1        0.0358
@<TRIPOS>BOND
     1     1    17    2
     2     2     6    1
     3     2     9    1
     4     2    13    1
     5     3     8    1
     6     3    10    1
     7     3    17   am
     8     4     6    1
     9     4     7    1
    10     4    10    1
    11     4    19    1
    12     5     7    1
    13     5     8    1
    14     5     9    1
    15     5    20    1
    16     6    11    1
    17     6    21    1
    18     7    22    1
    19     7    23    1
    20     8    12    1
    21     8    24    1
    22     9    25    1
    23     9    26    1
    24    10    27    1
    25    10    28    1
    26    11    14    1
    27    11    29    1
    28    11    30    1
    29    12    16    1
    30    12    31    1
    31    12    32    1
    32    13    15    1
    33    13    33    1
    34    13    34    1
    35    14    15    1
    36    14    35    1
    37    14    36    1
    38    15    37    1
    39    15    38    1
    40    16    18    1
    41    16    39    1
    42    16    40    1
    43    17    18    1
    44    18    41    1
    45    18    42    1
