@<TRIPOS>MOLECULE
IMPHY010099
 63 67 0 0 0
SMALL
GASTEIGER

@<TRIPOS>ATOM
      1 O          14.3674    0.7972    0.0000 O.3     1  UNL1       -0.3592
      2 O          13.7125    3.4789    0.0000 O.3     1  UNL1       -0.3885
      3 O          10.6262    1.2335    0.0000 O.2     1  UNL1       -0.4709
      4 O          11.5263   -0.2908    0.0000 O.3     1  UNL1       -0.3095
      5 O          13.1728   -0.8068    0.0000 O.3     1  UNL1       -0.3921
      6 O           9.7942   -0.2908    0.0000 O.3     1  UNL1       -0.3393
      7 O          11.5263   -2.2908    0.0000 O.3     1  UNL1       -0.3841
      8 O           9.7942   -3.2908    0.0000 O.3     1  UNL1       -0.3864
      9 O           8.0622   -2.2908    0.0000 O.3     1  UNL1       -0.3864
     10 O           7.1962   -0.7908    0.0000 O.3     1  UNL1       -0.4589
     11 O           6.3301    0.7092    0.0000 O.2     1  UNL1       -0.2456
     12 C          13.3738    0.9135    0.0000 C.3     1  UNL1        0.1304
     13 C          13.9709    1.7157    0.0000 C.3     1  UNL1        0.1174
     14 C          12.4263    1.2335    0.0000 C.3     1  UNL1        0.0641
     15 C          12.4379    2.2335    0.0000 C.3     1  UNL1        0.0201
     16 C          13.3925    2.5315    0.0000 C.3     1  UNL1        0.0910
     17 C          12.7767    0.1114    0.0000 C.3     1  UNL1        0.0763
     18 C          11.5263    0.7092    0.0000 C.3     1  UNL1        0.2096
     19 C          11.5502    2.7784    0.0000 C.2     1  UNL1       -0.0434
     20 C          10.6383    2.2751    0.0000 C.2     1  UNL1        0.0843
     21 C          10.6603   -0.7908    0.0000 C.3     1  UNL1        0.1919
     22 C          10.6603   -1.7908    0.0000 C.3     1  UNL1        0.1343
     23 C           9.7942   -2.2908    0.0000 C.3     1  UNL1        0.1141
     24 C           8.9282   -0.7908    0.0000 C.3     1  UNL1        0.1240
     25 C           8.9282   -1.7908    0.0000 C.3     1  UNL1        0.1129
     26 C           8.0622   -0.2908    0.0000 C.3     1  UNL1        0.1215
     27 C           6.3301   -0.2908    0.0000 C.2     1  UNL1        0.3320
     28 C           5.4641   -0.7908    0.0000 C.2     1  UNL1        0.0231
     29 C           4.5981   -0.2908    0.0000 C.2     1  UNL1       -0.0478
     30 C           3.7320   -0.7908    0.0000 C.ar    1  UNL1       -0.0248
     31 C           2.8660   -0.2908    0.0000 C.ar    1  UNL1       -0.0546
     32 C           3.7320   -1.7908    0.0000 C.ar    1  UNL1       -0.0546
     33 C           2.0000   -0.7908    0.0000 C.ar    1  UNL1       -0.0612
     34 C           2.8660   -2.2908    0.0000 C.ar    1  UNL1       -0.0612
     35 C           2.0000   -1.7908    0.0000 C.ar    1  UNL1       -0.0617
     36 H          14.7118    2.1322    0.0000 H       1  UNL1        0.0652
     37 H          12.5119    0.3878    0.0000 H       1  UNL1        0.0398
     38 H          12.5430    3.0769    0.0000 H       1  UNL1        0.0375
     39 H          12.9592    2.9749    0.0000 H       1  UNL1        0.0626
     40 H          12.3512    0.5623    0.0000 H       1  UNL1        0.0587
     41 H          12.2587   -0.2294    0.0000 H       1  UNL1        0.0587
     42 H          12.0638    0.4003    0.0000 H       1  UNL1        0.1060
     43 H          11.5645    3.3983    0.0000 H       1  UNL1        0.0606
     44 H          14.3204    3.6008    0.0000 H       1  UNL1        0.2099
     45 H          10.1062    2.5933    0.0000 H       1  UNL1        0.1021
     46 H          13.7886   -0.8788    0.0000 H       1  UNL1        0.2095
     47 H          11.1972   -1.1008    0.0000 H       1  UNL1        0.0939
     48 H          10.6603   -2.4108    0.0000 H       1  UNL1        0.0671
     49 H           9.2573   -2.6008    0.0000 H       1  UNL1        0.0648
     50 H           8.9282   -0.1708    0.0000 H       1  UNL1        0.0658
     51 H           8.3913   -1.4808    0.0000 H       1  UNL1        0.0647
     52 H           8.4607    0.1842    0.0000 H       1  UNL1        0.0725
     53 H           7.6636    0.1842    0.0000 H       1  UNL1        0.0725
     54 H          11.5263   -2.9108    0.0000 H       1  UNL1        0.2101
     55 H           9.2573   -3.6008    0.0000 H       1  UNL1        0.2100
     56 H           8.0622   -2.9108    0.0000 H       1  UNL1        0.2100
     57 H           5.4641   -1.4108    0.0000 H       1  UNL1        0.0689
     58 H           4.5981    0.3292    0.0000 H       1  UNL1        0.0626
     59 H           2.8660    0.3292    0.0000 H       1  UNL1        0.0623
     60 H           4.2690   -2.1008    0.0000 H       1  UNL1        0.0623
     61 H           1.4631   -0.4808    0.0000 H       1  UNL1        0.0618
     62 H           2.8660   -2.9108    0.0000 H       1  UNL1        0.0618
     63 H           1.4631   -2.1008    0.0000 H       1  UNL1        0.0618
@<TRIPOS>BOND
     1     1    12    1
     2     1    13    1
     3    16     2    1
     4     2    44    1
     5     3    18    1
     6     3    20    1
     7    18     4    1
     8    21     4    1
     9     5    17    1
    10     5    46    1
    11     6    21    1
    12     6    24    1
    13    22     7    1
    14     7    54    1
    15    23     8    1
    16     8    55    1
    17    25     9    1
    18     9    56    1
    19    10    26    1
    20    10    27    1
    21    11    27    2
    22    12    13    1
    23    12    14    1
    24    12    17    1
    25    13    16    1
    26    13    36    1
    27    14    15    1
    28    14    18    1
    29    14    37    1
    30    15    16    1
    31    15    19    1
    32    15    38    1
    33    16    39    1
    34    17    40    1
    35    17    41    1
    36    18    42    1
    37    19    20    2
    38    19    43    1
    39    20    45    1
    40    21    22    1
    41    21    47    1
    42    22    23    1
    43    22    48    1
    44    23    25    1
    45    23    49    1
    46    24    25    1
    47    24    26    1
    48    24    50    1
    49    25    51    1
    50    26    52    1
    51    26    53    1
    52    27    28    1
    53    28    29    2
    54    28    57    1
    55    29    30    1
    56    29    58    1
    57    30    31   ar
    58    30    32   ar
    59    31    33   ar
    60    31    59    1
    61    32    34   ar
    62    32    60    1
    63    33    35   ar
    64    33    61    1
    65    34    35   ar
    66    34    62    1
    67    35    63    1
