@<TRIPOS>MOLECULE
IMPHY016521
 44 44 0 0 0
SMALL
GASTEIGER

@<TRIPOS>ATOM
      1 O           3.4513    4.0330    0.0000 O.2     1  UNL1       -0.4635
      2 C           3.6057   -0.6300    0.0000 C.3     1  UNL1       -0.0531
      3 C           4.3488    0.0391    0.0000 C.3     1  UNL1       -0.0530
      4 C           3.8136   -1.6082    0.0000 C.3     1  UNL1       -0.0530
      5 C           4.1409    1.0172    0.0000 C.3     1  UNL1       -0.0528
      6 C           3.0705   -2.2773    0.0000 C.3     1  UNL1       -0.0528
      7 C           4.8841    1.6864    0.0000 C.3     1  UNL1       -0.0496
      8 C           3.2784   -3.2555    0.0000 C.3     1  UNL1       -0.0496
      9 C           4.6762    2.6645    0.0000 C.3     1  UNL1       -0.0344
     10 C           2.5352   -3.9246    0.0000 C.3     1  UNL1       -0.0350
     11 C           5.4193    3.3336    0.0000 C.2     1  UNL1       -0.0805
     12 C           2.7431   -4.9027    0.0000 C.2     1  UNL1       -0.0911
     13 C           5.2114    4.3118    0.0000 C.2     1  UNL1       -0.0233
     14 C           4.2603    4.6208    0.0000 C.ar    1  UNL1        0.1274
     15 C           2.0000   -5.5719    0.0000 C.2     1  UNL1       -0.1026
     16 C           3.9513    5.5719    0.0000 C.ar    1  UNL1       -0.0165
     17 C           2.9513    5.5719    0.0000 C.ar    1  UNL1       -0.0233
     18 C           2.6423    4.6208    0.0000 C.ar    1  UNL1        0.0925
     19 H           3.2772   -0.1042    0.0000 H       1  UNL1        0.0265
     20 H           3.0308   -0.8623    0.0000 H       1  UNL1        0.0265
     21 H           4.6774   -0.4867    0.0000 H       1  UNL1        0.0265
     22 H           4.9237    0.2714    0.0000 H       1  UNL1        0.0265
     23 H           4.1422   -2.1340    0.0000 H       1  UNL1        0.0265
     24 H           4.3885   -1.3759    0.0000 H       1  UNL1        0.0265
     25 H           3.8124    1.5430    0.0000 H       1  UNL1        0.0265
     26 H           3.5661    0.7850    0.0000 H       1  UNL1        0.0265
     27 H           2.7419   -1.7515    0.0000 H       1  UNL1        0.0265
     28 H           2.4956   -2.5096    0.0000 H       1  UNL1        0.0265
     29 H           5.2126    1.1606    0.0000 H       1  UNL1        0.0268
     30 H           5.4589    1.9186    0.0000 H       1  UNL1        0.0268
     31 H           3.6069   -3.7812    0.0000 H       1  UNL1        0.0268
     32 H           3.8532   -3.0232    0.0000 H       1  UNL1        0.0268
     33 H           4.3476    3.1903    0.0000 H       1  UNL1        0.0307
     34 H           4.1013    2.4323    0.0000 H       1  UNL1        0.0307
     35 H           2.2067   -3.3988    0.0000 H       1  UNL1        0.0307
     36 H           1.9604   -4.1569    0.0000 H       1  UNL1        0.0307
     37 H           6.0090    3.1421    0.0000 H       1  UNL1        0.0573
     38 H           3.3328   -5.0943    0.0000 H       1  UNL1        0.0566
     39 H           5.6722    4.7267    0.0000 H       1  UNL1        0.0651
     40 H           1.4103   -5.3803    0.0000 H       1  UNL1        0.0532
     41 H           2.1289   -6.1783    0.0000 H       1  UNL1        0.0532
     42 H           4.3158    6.0735    0.0000 H       1  UNL1        0.0655
     43 H           2.5869    6.0735    0.0000 H       1  UNL1        0.0649
     44 H           2.0526    4.4292    0.0000 H       1  UNL1        0.1029
@<TRIPOS>BOND
     1     1    14   ar
     2     1    18   ar
     3     2     3    1
     4     2     4    1
     5     2    19    1
     6     2    20    1
     7     3     5    1
     8     3    21    1
     9     3    22    1
    10     4     6    1
    11     4    23    1
    12     4    24    1
    13     5     7    1
    14     5    25    1
    15     5    26    1
    16     6     8    1
    17     6    27    1
    18     6    28    1
    19     7     9    1
    20     7    29    1
    21     7    30    1
    22     8    10    1
    23     8    31    1
    24     8    32    1
    25     9    11    1
    26     9    33    1
    27     9    34    1
    28    10    12    1
    29    10    35    1
    30    10    36    1
    31    11    13    2
    32    11    37    1
    33    12    15    2
    34    12    38    1
    35    13    14    1
    36    13    39    1
    37    14    16   ar
    38    15    40    1
    39    15    41    1
    40    16    17   ar
    41    16    42    1
    42    17    18   ar
    43    17    43    1
    44    18    44    1
