@<TRIPOS>MOLECULE
IMPHY003192
 27 27 0 0 0
SMALL
GASTEIGER

@<TRIPOS>ATOM
      1 O           5.4641    1.7500    0.0000 O.3     1  UNL1       -0.4947
      2 O           7.1962   -1.2500    0.0000 O.3     1  UNL1       -0.4950
      3 C           4.5981    0.2500    0.0000 C.ar    1  UNL1       -0.0018
      4 C           5.4641    0.7500    0.0000 C.ar    1  UNL1        0.1270
      5 C           3.7320    0.7500    0.0000 C.3     1  UNL1       -0.0063
      6 C           4.5981   -0.7500    0.0000 C.ar    1  UNL1       -0.0514
      7 C           6.3301    0.2500    0.0000 C.ar    1  UNL1        0.0220
      8 C           6.3301   -0.7500    0.0000 C.ar    1  UNL1        0.1236
      9 C           5.4641   -1.2500    0.0000 C.ar    1  UNL1       -0.0195
     10 C           2.8660    0.2500    0.0000 C.2     1  UNL1       -0.0867
     11 C           6.3301    2.2500    0.0000 C.3     1  UNL1        0.0788
     12 C           2.0000    0.7500    0.0000 C.2     1  UNL1       -0.1023
     13 C           7.1962   -2.2500    0.0000 C.3     1  UNL1        0.0788
     14 H           4.1306    1.2250    0.0000 H       1  UNL1        0.0357
     15 H           3.3335    1.2250    0.0000 H       1  UNL1        0.0357
     16 H           4.0611   -1.0600    0.0000 H       1  UNL1        0.0623
     17 H           6.8671    0.5600    0.0000 H       1  UNL1        0.0691
     18 H           5.4641   -1.8700    0.0000 H       1  UNL1        0.0654
     19 H           2.8660   -0.3700    0.0000 H       1  UNL1        0.0570
     20 H           6.6401    1.7131    0.0000 H       1  UNL1        0.0660
     21 H           6.8671    2.5600    0.0000 H       1  UNL1        0.0660
     22 H           6.0201    2.7869    0.0000 H       1  UNL1        0.0660
     23 H           6.5762   -2.2500    0.0000 H       1  UNL1        0.0660
     24 H           7.1962   -2.8700    0.0000 H       1  UNL1        0.0660
     25 H           7.8162   -2.2500    0.0000 H       1  UNL1        0.0660
     26 H           2.0000    1.3700    0.0000 H       1  UNL1        0.0532
     27 H           1.4631    0.4400    0.0000 H       1  UNL1        0.0532
@<TRIPOS>BOND
     1     1     4    1
     2     1    11    1
     3     2     8    1
     4     2    13    1
     5     3     4   ar
     6     3     5    1
     7     3     6   ar
     8     4     7   ar
     9     5    10    1
    10     5    14    1
    11     5    15    1
    12     6     9   ar
    13     6    16    1
    14     7     8   ar
    15     7    17    1
    16     8     9   ar
    17     9    18    1
    18    10    12    2
    19    10    19    1
    20    11    20    1
    21    11    21    1
    22    11    22    1
    23    12    26    1
    24    12    27    1
    25    13    23    1
    26    13    24    1
    27    13    25    1
