@<TRIPOS>MOLECULE
IMPHY013168
 60 62 0 0 0
SMALL
GASTEIGER

@<TRIPOS>ATOM
      1 O          10.1972    0.7306    0.0000 O.3     1  UNL1       -0.3362
      2 O          11.1972   -0.2694    0.0000 O.3     1  UNL1       -0.3125
      3 O           9.4651   -0.2694    0.0000 O.3     1  UNL1       -0.3393
      4 O          12.4573    1.9906    0.0000 O.3     1  UNL1       -0.3837
      5 O          10.6972    3.2694    0.0000 O.3     1  UNL1       -0.3864
      6 O          11.1972   -2.2694    0.0000 O.3     1  UNL1       -0.3841
      7 O           9.4651   -3.2694    0.0000 O.3     1  UNL1       -0.3864
      8 O           7.7331   -2.2694    0.0000 O.3     1  UNL1       -0.3864
      9 O          12.8914    1.0907    0.0000 O.3     1  UNL1       -0.3896
     10 O           8.7292    2.9688    0.0000 O.3     1  UNL1       -0.3924
     11 O           6.8671   -0.7694    0.0000 O.3     1  UNL1       -0.4585
     12 O           6.0010    0.7306    0.0000 O.2     1  UNL1       -0.2450
     13 O           4.2690   -3.2694    0.0000 O.3     1  UNL1       -0.5032
     14 O           2.5369   -0.2694    0.0000 O.3     1  UNL1       -0.5032
     15 O           2.5369   -2.2694    0.0000 O.3     1  UNL1       -0.5009
     16 C          11.1972    0.7306    0.0000 C.3     1  UNL1        0.2252
     17 C          11.5062    1.6816    0.0000 C.3     1  UNL1        0.1395
     18 C          10.6972    2.2694    0.0000 C.3     1  UNL1        0.1145
     19 C           9.8882    1.6816    0.0000 C.3     1  UNL1        0.1134
     20 C          10.3312   -0.7694    0.0000 C.3     1  UNL1        0.1913
     21 C          10.3312   -1.7694    0.0000 C.3     1  UNL1        0.1342
     22 C           9.4651   -2.2694    0.0000 C.3     1  UNL1        0.1141
     23 C           8.5991   -1.7694    0.0000 C.3     1  UNL1        0.1129
     24 C           8.5991   -0.7694    0.0000 C.3     1  UNL1        0.1240
     25 C          12.1482    0.4216    0.0000 C.3     1  UNL1        0.1009
     26 C           8.9371    1.9906    0.0000 C.3     1  UNL1        0.0730
     27 C           7.7331   -0.2694    0.0000 C.3     1  UNL1        0.1215
     28 C           6.0010   -0.2694    0.0000 C.2     1  UNL1        0.3395
     29 C           5.1350   -0.7694    0.0000 C.ar    1  UNL1        0.0661
     30 C           4.2690   -0.2694    0.0000 C.ar    1  UNL1       -0.0023
     31 C           5.1350   -1.7694    0.0000 C.ar    1  UNL1       -0.0023
     32 C           4.2690   -2.2694    0.0000 C.ar    1  UNL1        0.1628
     33 C           3.4030   -0.7694    0.0000 C.ar    1  UNL1        0.1628
     34 C           3.4030   -1.7694    0.0000 C.ar    1  UNL1        0.2006
     35 H          11.6032    2.2940    0.0000 H       1  UNL1        0.0675
     36 H          11.2496    2.5509    0.0000 H       1  UNL1        0.0648
     37 H           9.4498    1.2432    0.0000 H       1  UNL1        0.0647
     38 H          10.3312   -0.1494    0.0000 H       1  UNL1        0.0939
     39 H          10.3312   -2.3894    0.0000 H       1  UNL1        0.0671
     40 H           8.9282   -2.5794    0.0000 H       1  UNL1        0.0648
     41 H           8.5991   -2.3894    0.0000 H       1  UNL1        0.0647
     42 H           8.5991   -0.1494    0.0000 H       1  UNL1        0.0658
     43 H          11.8572   -0.1259    0.0000 H       1  UNL1        0.0612
     44 H          12.6368    0.0399    0.0000 H       1  UNL1        0.0612
     45 H           8.3175    1.9690    0.0000 H       1  UNL1        0.0584
     46 H           8.8508    1.3767    0.0000 H       1  UNL1        0.0584
     47 H           8.1316    0.2055    0.0000 H       1  UNL1        0.0725
     48 H           7.3346    0.2055    0.0000 H       1  UNL1        0.0725
     49 H          12.5862    2.5971    0.0000 H       1  UNL1        0.2101
     50 H          11.2341    3.5794    0.0000 H       1  UNL1        0.2100
     51 H          11.1972   -2.8894    0.0000 H       1  UNL1        0.2101
     52 H           8.9282   -3.5794    0.0000 H       1  UNL1        0.2100
     53 H           7.7331   -2.8894    0.0000 H       1  UNL1        0.2100
     54 H          13.4810    0.8991    0.0000 H       1  UNL1        0.2096
     55 H           8.1396    3.1604    0.0000 H       1  UNL1        0.2095
     56 H           4.2690    0.3506    0.0000 H       1  UNL1        0.0663
     57 H           5.6720   -2.0794    0.0000 H       1  UNL1        0.0663
     58 H           3.7320   -3.5794    0.0000 H       1  UNL1        0.2923
     59 H           2.5369    0.3506    0.0000 H       1  UNL1        0.2923
     60 H           2.0000   -1.9594    0.0000 H       1  UNL1        0.2924
@<TRIPOS>BOND
     1     1    16    1
     2     1    19    1
     3     2    16    1
     4     2    20    1
     5     3    20    1
     6     3    24    1
     7     4    17    1
     8     4    49    1
     9     5    18    1
    10     5    50    1
    11     6    21    1
    12     6    51    1
    13     7    22    1
    14     7    52    1
    15     8    23    1
    16     8    53    1
    17     9    25    1
    18     9    54    1
    19    10    26    1
    20    10    55    1
    21    11    27    1
    22    11    28    1
    23    12    28    2
    24    13    32    1
    25    13    58    1
    26    14    33    1
    27    14    59    1
    28    15    34    1
    29    15    60    1
    30    16    17    1
    31    16    25    1
    32    17    18    1
    33    17    35    1
    34    18    19    1
    35    18    36    1
    36    19    26    1
    37    19    37    1
    38    20    21    1
    39    20    38    1
    40    21    22    1
    41    21    39    1
    42    22    23    1
    43    22    40    1
    44    23    24    1
    45    23    41    1
    46    24    27    1
    47    24    42    1
    48    25    43    1
    49    25    44    1
    50    26    45    1
    51    26    46    1
    52    27    47    1
    53    27    48    1
    54    28    29    1
    55    29    30   ar
    56    29    31   ar
    57    30    33   ar
    58    30    56    1
    59    31    32   ar
    60    31    57    1
    61    32    34   ar
    62    33    34   ar
