@<TRIPOS>MOLECULE
IMPHY002136
 26 26 0 0 0
SMALL
GASTEIGER

@<TRIPOS>ATOM
      1 O           5.4641    2.7094    0.0000 O.3     1  UNL1       -0.4804
      2 O           2.0000   -0.2906    0.0000 O.2     1  UNL1       -0.2920
      3 O           3.3660   -3.3294    0.0000 O.2     1  UNL1       -0.4703
      4 O           3.7320    2.7094    0.0000 O.2     1  UNL1       -0.2507
      5 C           3.7320    0.7094    0.0000 C.3     1  UNL1       -0.0334
      6 C           4.5981    1.2094    0.0000 C.3     1  UNL1        0.0539
      7 C           3.7320   -0.2906    0.0000 C.3     1  UNL1        0.0113
      8 C           5.4641    0.7094    0.0000 C.3     1  UNL1       -0.0523
      9 C           2.8660   -0.7906    0.0000 C.2     1  UNL1        0.1662
     10 C           4.5981    2.2094    0.0000 C.2     1  UNL1        0.3076
     11 C           2.8660   -1.7906    0.0000 C.ar    1  UNL1        0.0550
     12 C           2.0570   -2.3784    0.0000 C.ar    1  UNL1       -0.0134
     13 C           3.6750   -2.3784    0.0000 C.ar    1  UNL1        0.1021
     14 C           2.3660   -3.3294    0.0000 C.ar    1  UNL1        0.0924
     15 H           3.5200    1.2920    0.0000 H       1  UNL1        0.0277
     16 H           3.1215    0.6018    0.0000 H       1  UNL1        0.0277
     17 H           5.1350    1.5194    0.0000 H       1  UNL1        0.0411
     18 H           3.9441   -0.8732    0.0000 H       1  UNL1        0.0345
     19 H           4.3426   -0.1829    0.0000 H       1  UNL1        0.0345
     20 H           5.1541    0.1725    0.0000 H       1  UNL1        0.0238
     21 H           6.0010    0.3994    0.0000 H       1  UNL1        0.0238
     22 H           5.7741    1.2464    0.0000 H       1  UNL1        0.0238
     23 H           1.4674   -2.1868    0.0000 H       1  UNL1        0.0656
     24 H           4.2647   -2.1868    0.0000 H       1  UNL1        0.1036
     25 H           2.0016   -3.8310    0.0000 H       1  UNL1        0.1029
     26 H           5.4641    3.3294    0.0000 H       1  UNL1        0.2951
@<TRIPOS>BOND
     1     1    10    1
     2     1    26    1
     3     2     9    2
     4     3    13   ar
     5     3    14   ar
     6     4    10    2
     7     5     6    1
     8     5     7    1
     9     5    15    1
    10     5    16    1
    11     6     8    1
    12     6    10    1
    13     6    17    1
    14     7     9    1
    15     7    18    1
    16     7    19    1
    17     8    20    1
    18     8    21    1
    19     8    22    1
    20     9    11    1
    21    11    12   ar
    22    11    13   ar
    23    12    14   ar
    24    12    23    1
    25    13    24    1
    26    14    25    1
