@<TRIPOS>MOLECULE
IMPHY005117
 178 188 0 0 0
SMALL
GASTEIGER

@<TRIPOS>ATOM
      1 O          14.3523    7.7079    0.0000 O.3     1  UNL1       -0.3448
      2 O          12.5799    8.6027    0.0000 O.3     1  UNL1       -0.3480
      3 O          12.9292   -0.5362    0.0000 O.3     1  UNL1       -0.3454
      4 O          11.1972   -0.5362    0.0000 O.3     1  UNL1       -0.3405
      5 O          12.9292   -2.5362    0.0000 O.3     1  UNL1       -0.3841
      6 O          11.1972   -3.5362    0.0000 O.3     1  UNL1       -0.3864
      7 O           9.4651   -2.5362    0.0000 O.3     1  UNL1       -0.3401
      8 O           9.4651    0.4638    0.0000 O.3     1  UNL1       -0.3924
      9 O           8.5991   -1.0361    0.0000 O.3     1  UNL1       -0.3405
     10 O           7.7331   -3.5362    0.0000 O.3     1  UNL1       -0.3377
     11 O           6.0010   -2.5362    0.0000 O.3     1  UNL1       -0.3400
     12 O           6.0010   -0.5362    0.0000 O.3     1  UNL1       -0.3865
     13 O           6.4062   -4.6494    0.0000 O.3     1  UNL1       -0.3405
     14 O           6.8671    0.9638    0.0000 O.3     1  UNL1       -0.3924
     15 O           5.1350   -1.0361    0.0000 O.3     1  UNL1       -0.3405
     16 O           9.0187   -5.0682    0.0000 O.3     1  UNL1       -0.3841
     17 O           8.3347   -6.9476    0.0000 O.3     1  UNL1       -0.3864
     18 O           4.2690   -3.5362    0.0000 O.3     1  UNL1       -0.3841
     19 O           6.3650   -7.2949    0.0000 O.3     1  UNL1       -0.3401
     20 O           2.5369   -2.5362    0.0000 O.3     1  UNL1       -0.3864
     21 O           2.5369   -0.5362    0.0000 O.3     1  UNL1       -0.3865
     22 O           4.7374   -6.7025    0.0000 O.3     1  UNL1       -0.3924
     23 O           7.9926   -7.8873    0.0000 O.3     1  UNL1       -0.3431
     24 O           3.4030    0.9638    0.0000 O.3     1  UNL1       -0.3924
     25 O           5.6809   -9.1743    0.0000 O.3     1  UNL1       -0.3841
     26 O           6.9665  -10.7064    0.0000 O.3     1  UNL1       -0.3864
     27 O           8.9362  -10.3591    0.0000 O.3     1  UNL1       -0.3866
     28 C          12.9585    5.6607    0.0000 C.3     1  UNL1       -0.0233
     29 C          13.8264    5.1641    0.0000 C.3     1  UNL1       -0.0298
     30 C          13.8303    4.1641    0.0000 C.3     1  UNL1       -0.0343
     31 C          13.1640    6.6333    0.0000 C.3     1  UNL1       -0.0015
     32 C          12.9662    3.6607    0.0000 C.3     1  UNL1       -0.0323
     33 C          14.1523    6.7402    0.0000 C.3     1  UNL1        0.0660
     34 C          12.9542    2.6192    0.0000 C.3     1  UNL1       -0.0260
     35 C          14.5609    5.8340    0.0000 C.3     1  UNL1       -0.0226
     36 C          12.0944    5.1574    0.0000 C.3     1  UNL1       -0.0467
     37 C          12.0983    4.1574    0.0000 C.3     1  UNL1       -0.0489
     38 C          12.7617    7.5359    0.0000 C.3     1  UNL1        0.0160
     39 C          13.8542    2.0949    0.0000 C.3     1  UNL1       -0.0330
     40 C          14.7422    3.6607    0.0000 C.3     1  UNL1       -0.0494
     41 C          13.4946    8.1987    0.0000 C.3     1  UNL1        0.1732
     42 C          14.7543    2.6192    0.0000 C.3     1  UNL1       -0.0494
     43 C          12.0906    6.1574    0.0000 C.3     1  UNL1       -0.0590
     44 C          12.0043    2.0949    0.0000 C.3     1  UNL1       -0.0448
     45 C          13.8668    1.0100    0.0000 C.3     1  UNL1       -0.0232
     46 C          12.0901    3.1225    0.0000 C.3     1  UNL1       -0.0590
     47 C          11.9917    1.0100    0.0000 C.3     1  UNL1       -0.0260
     48 C          11.7833    7.7426    0.0000 C.3     1  UNL1       -0.0572
     49 C          12.9292    0.4638    0.0000 C.3     1  UNL1        0.0621
     50 C          14.3019    8.7889    0.0000 C.3     1  UNL1        0.0020
     51 C          14.1944    9.7831    0.0000 C.3     1  UNL1       -0.0435
     52 C          12.4724    9.5969    0.0000 C.3     1  UNL1        0.0535
     53 C          13.2796   10.1871    0.0000 C.3     1  UNL1       -0.0201
     54 C          13.1721   11.1813    0.0000 C.3     1  UNL1       -0.0603
     55 C          12.0632   -1.0361    0.0000 C.3     1  UNL1        0.1882
     56 C          12.0632   -2.0362    0.0000 C.3     1  UNL1        0.1341
     57 C          11.1972   -2.5362    0.0000 C.3     1  UNL1        0.1144
     58 C          10.3312   -1.0361    0.0000 C.3     1  UNL1        0.1134
     59 C          10.3312   -2.0362    0.0000 C.3     1  UNL1        0.1184
     60 C           9.4651   -0.5362    0.0000 C.3     1  UNL1        0.0730
     61 C           8.5991   -2.0362    0.0000 C.3     1  UNL1        0.1888
     62 C           7.7331   -2.5362    0.0000 C.3     1  UNL1        0.1410
     63 C           6.8671   -2.0362    0.0000 C.3     1  UNL1        0.1209
     64 C           7.7331   -0.5362    0.0000 C.3     1  UNL1        0.1130
     65 C           6.8671   -1.0361    0.0000 C.3     1  UNL1        0.1123
     66 C           7.7331    0.4638    0.0000 C.3     1  UNL1        0.0730
     67 C           7.3910   -4.4758    0.0000 C.3     1  UNL1        0.1885
     68 C           5.1350   -2.0362    0.0000 C.3     1  UNL1        0.1884
     69 C           8.0339   -5.2419    0.0000 C.3     1  UNL1        0.1341
     70 C           7.6918   -6.1816    0.0000 C.3     1  UNL1        0.1144
     71 C           4.2690   -2.5362    0.0000 C.3     1  UNL1        0.1341
     72 C           6.0642   -5.5891    0.0000 C.3     1  UNL1        0.1134
     73 C           6.7070   -6.3552    0.0000 C.3     1  UNL1        0.1184
     74 C           3.4030   -2.0362    0.0000 C.3     1  UNL1        0.1141
     75 C           4.2690   -0.5362    0.0000 C.3     1  UNL1        0.1130
     76 C           3.4030   -1.0361    0.0000 C.3     1  UNL1        0.1119
     77 C           5.0794   -5.7628    0.0000 C.3     1  UNL1        0.0730
     78 C           4.2690    0.4638    0.0000 C.3     1  UNL1        0.0730
     79 C           7.0078   -8.0610    0.0000 C.3     1  UNL1        0.1883
     80 C           6.6658   -9.0007    0.0000 C.3     1  UNL1        0.1341
     81 C           7.3086   -9.7667    0.0000 C.3     1  UNL1        0.1140
     82 C           8.6354   -8.6534    0.0000 C.3     1  UNL1        0.0873
     83 C           8.2934   -9.5930    0.0000 C.3     1  UNL1        0.1095
     84 C           9.6203   -8.4797    0.0000 C.3     1  UNL1       -0.0361
     85 H          14.3941    4.9148    0.0000 H       1  UNL1        0.0310
     86 H          14.3636    4.4803    0.0000 H       1  UNL1        0.0306
     87 H          12.5474    6.5680    0.0000 H       1  UNL1        0.0335
     88 H          13.5019    3.3487    0.0000 H       1  UNL1        0.0309
     89 H          14.7685    6.8082    0.0000 H       1  UNL1        0.0600
     90 H          14.9283    5.3345    0.0000 H       1  UNL1        0.0293
     91 H          15.0962    6.1468    0.0000 H       1  UNL1        0.0293
     92 H          11.8801    5.7392    0.0000 H       1  UNL1        0.0271
     93 H          11.4842    5.0474    0.0000 H       1  UNL1        0.0271
     94 H          11.4873    4.2627    0.0000 H       1  UNL1        0.0268
     95 H          11.8885    3.5740    0.0000 H       1  UNL1        0.0268
     96 H          12.3719    7.0538    0.0000 H       1  UNL1        0.0354
     97 H          14.3935    1.7890    0.0000 H       1  UNL1        0.0307
     98 H          15.3543    3.5617    0.0000 H       1  UNL1        0.0268
     99 H          14.9445    4.2468    0.0000 H       1  UNL1        0.0268
    100 H          14.9701    2.0379    0.0000 H       1  UNL1        0.0268
    101 H          15.3639    2.7323    0.0000 H       1  UNL1        0.0268
    102 H          12.3985    6.6955    0.0000 H       1  UNL1        0.0235
    103 H          11.5524    6.4653    0.0000 H       1  UNL1        0.0235
    104 H          11.7826    5.6192    0.0000 H       1  UNL1        0.0235
    105 H          11.8020    2.6810    0.0000 H       1  UNL1        0.0271
    106 H          11.3922    1.9959    0.0000 H       1  UNL1        0.0271
    107 H          14.0826    0.4287    0.0000 H       1  UNL1        0.0293
    108 H          14.4764    1.1231    0.0000 H       1  UNL1        0.0293
    109 H          12.4021    3.6582    0.0000 H       1  UNL1        0.0235
    110 H          11.5543    3.4346    0.0000 H       1  UNL1        0.0235
    111 H          11.7780    2.5868    0.0000 H       1  UNL1        0.0235
    112 H          11.3821    1.1231    0.0000 H       1  UNL1        0.0290
    113 H          11.7759    0.4287    0.0000 H       1  UNL1        0.0290
    114 H          11.9114    8.3492    0.0000 H       1  UNL1        0.0234
    115 H          11.1766    7.8708    0.0000 H       1  UNL1        0.0234
    116 H          11.6551    7.1360    0.0000 H       1  UNL1        0.0234
    117 H          12.3917    0.1549    0.0000 H       1  UNL1        0.0597
    118 H          14.5753    8.2325    0.0000 H       1  UNL1        0.0317
    119 H          14.8974    8.9616    0.0000 H       1  UNL1        0.0317
    120 H          14.8130    9.7417    0.0000 H       1  UNL1        0.0270
    121 H          14.3426   10.3852    0.0000 H       1  UNL1        0.0270
    122 H          12.1989   10.1534    0.0000 H       1  UNL1        0.0563
    123 H          11.8769    9.4243    0.0000 H       1  UNL1        0.0563
    124 H          13.7801   10.5531    0.0000 H       1  UNL1        0.0320
    125 H          13.7885   11.2480    0.0000 H       1  UNL1        0.0233
    126 H          13.1055   11.7978    0.0000 H       1  UNL1        0.0233
    127 H          12.5557   11.1147    0.0000 H       1  UNL1        0.0233
    128 H          12.0632   -0.4162    0.0000 H       1  UNL1        0.0937
    129 H          12.0632   -2.6561    0.0000 H       1  UNL1        0.0671
    130 H          10.6603   -2.8462    0.0000 H       1  UNL1        0.0648
    131 H          10.3312   -0.4162    0.0000 H       1  UNL1        0.0647
    132 H           9.7942   -1.7262    0.0000 H       1  UNL1        0.0651
    133 H          13.4662   -2.2262    0.0000 H       1  UNL1        0.2101
    134 H           8.8546   -0.4285    0.0000 H       1  UNL1        0.0584
    135 H           9.2531   -1.1188    0.0000 H       1  UNL1        0.0584
    136 H          11.7341   -3.8462    0.0000 H       1  UNL1        0.2100
    137 H           8.5991   -2.6561    0.0000 H       1  UNL1        0.0938
    138 H           8.9282    0.7738    0.0000 H       1  UNL1        0.2095
    139 H           7.1962   -2.8462    0.0000 H       1  UNL1        0.0675
    140 H           6.3301   -1.7262    0.0000 H       1  UNL1        0.0651
    141 H           8.2700   -0.2262    0.0000 H       1  UNL1        0.0647
    142 H           6.8671   -0.4162    0.0000 H       1  UNL1        0.0647
    143 H           8.3437    0.3562    0.0000 H       1  UNL1        0.0584
    144 H           7.9451    1.0465    0.0000 H       1  UNL1        0.0584
    145 H           6.9925   -4.0009    0.0000 H       1  UNL1        0.0938
    146 H           6.0010    0.0838    0.0000 H       1  UNL1        0.2100
    147 H           5.1350   -2.6561    0.0000 H       1  UNL1        0.0938
    148 H           8.4324   -5.7168    0.0000 H       1  UNL1        0.0671
    149 H           7.4798   -6.7642    0.0000 H       1  UNL1        0.0648
    150 H           6.8671    1.5838    0.0000 H       1  UNL1        0.2095
    151 H           3.7320   -2.8462    0.0000 H       1  UNL1        0.0671
    152 H           5.6656   -5.1142    0.0000 H       1  UNL1        0.0647
    153 H           6.0964   -6.4629    0.0000 H       1  UNL1        0.0651
    154 H           2.8660   -1.7262    0.0000 H       1  UNL1        0.0648
    155 H           4.8059   -0.2262    0.0000 H       1  UNL1        0.0647
    156 H           9.4173   -5.5431    0.0000 H       1  UNL1        0.2101
    157 H           3.4030   -0.4162    0.0000 H       1  UNL1        0.0647
    158 H           5.0794   -5.1428    0.0000 H       1  UNL1        0.0584
    159 H           4.4688   -5.6551    0.0000 H       1  UNL1        0.0584
    160 H           8.9453   -6.8399    0.0000 H       1  UNL1        0.2100
    161 H           3.7320   -3.8462    0.0000 H       1  UNL1        0.2101
    162 H           4.8796    0.3562    0.0000 H       1  UNL1        0.0584
    163 H           4.4810    1.0465    0.0000 H       1  UNL1        0.0584
    164 H           7.2198   -7.4784    0.0000 H       1  UNL1        0.0938
    165 H           2.0000   -2.2262    0.0000 H       1  UNL1        0.2100
    166 H           2.0000   -0.8462    0.0000 H       1  UNL1        0.2100
    167 H           4.1268   -6.8101    0.0000 H       1  UNL1        0.2095
    168 H           6.4537   -9.5833    0.0000 H       1  UNL1        0.0671
    169 H           7.7071  -10.2417    0.0000 H       1  UNL1        0.0648
    170 H           3.4030    1.5838    0.0000 H       1  UNL1        0.2095
    171 H           8.8475   -8.0707    0.0000 H       1  UNL1        0.0621
    172 H           8.9040   -9.4854    0.0000 H       1  UNL1        0.0646
    173 H           5.4689   -9.7569    0.0000 H       1  UNL1        0.2101
    174 H           9.7279   -9.0903    0.0000 H       1  UNL1        0.0255
    175 H          10.2308   -8.3720    0.0000 H       1  UNL1        0.0255
    176 H           9.5126   -7.8691    0.0000 H       1  UNL1        0.0255
    177 H           7.3651  -11.1813    0.0000 H       1  UNL1        0.2100
    178 H           9.5468  -10.2514    0.0000 H       1  UNL1        0.2100
@<TRIPOS>BOND
     1     1    33    1
     2     1    41    1
     3     2    41    1
     4     2    52    1
     5     3    49    1
     6     3    55    1
     7     4    55    1
     8     4    58    1
     9     5    56    1
    10     5   133    1
    11     6    57    1
    12     6   136    1
    13     7    59    1
    14     7    61    1
    15     8    60    1
    16     8   138    1
    17     9    61    1
    18     9    64    1
    19    10    62    1
    20    10    67    1
    21    11    63    1
    22    11    68    1
    23    12    65    1
    24    12   146    1
    25    13    67    1
    26    13    72    1
    27    14    66    1
    28    14   150    1
    29    15    68    1
    30    15    75    1
    31    16    69    1
    32    16   156    1
    33    17    70    1
    34    17   160    1
    35    18    71    1
    36    18   161    1
    37    19    73    1
    38    19    79    1
    39    20    74    1
    40    20   165    1
    41    21    76    1
    42    21   166    1
    43    22    77    1
    44    22   167    1
    45    23    79    1
    46    23    82    1
    47    24    78    1
    48    24   170    1
    49    25    80    1
    50    25   173    1
    51    26    81    1
    52    26   177    1
    53    27    83    1
    54    27   178    1
    55    28    29    1
    56    28    31    1
    57    28    36    1
    58    28    43    1
    59    29    30    1
    60    29    35    1
    61    29    85    1
    62    30    32    1
    63    30    40    1
    64    30    86    1
    65    31    33    1
    66    31    38    1
    67    31    87    1
    68    32    34    1
    69    32    37    1
    70    32    88    1
    71    33    35    1
    72    33    89    1
    73    34    39    1
    74    34    44    1
    75    34    46    1
    76    35    90    1
    77    35    91    1
    78    36    37    1
    79    36    92    1
    80    36    93    1
    81    37    94    1
    82    37    95    1
    83    38    41    1
    84    38    48    1
    85    38    96    1
    86    39    42    1
    87    39    45    1
    88    39    97    1
    89    40    42    1
    90    40    98    1
    91    40    99    1
    92    41    50    1
    93    42   100    1
    94    42   101    1
    95    43   102    1
    96    43   103    1
    97    43   104    1
    98    44    47    1
    99    44   105    1
   100    44   106    1
   101    45    49    1
   102    45   107    1
   103    45   108    1
   104    46   109    1
   105    46   110    1
   106    46   111    1
   107    47    49    1
   108    47   112    1
   109    47   113    1
   110    48   114    1
   111    48   115    1
   112    48   116    1
   113    49   117    1
   114    50    51    1
   115    50   118    1
   116    50   119    1
   117    51    53    1
   118    51   120    1
   119    51   121    1
   120    52    53    1
   121    52   122    1
   122    52   123    1
   123    53    54    1
   124    53   124    1
   125    54   125    1
   126    54   126    1
   127    54   127    1
   128    55    56    1
   129    55   128    1
   130    56    57    1
   131    56   129    1
   132    57    59    1
   133    57   130    1
   134    58    59    1
   135    58    60    1
   136    58   131    1
   137    59   132    1
   138    60   134    1
   139    60   135    1
   140    61    62    1
   141    61   137    1
   142    62    63    1
   143    62   139    1
   144    63    65    1
   145    63   140    1
   146    64    65    1
   147    64    66    1
   148    64   141    1
   149    65   142    1
   150    66   143    1
   151    66   144    1
   152    67    69    1
   153    67   145    1
   154    68    71    1
   155    68   147    1
   156    69    70    1
   157    69   148    1
   158    70    73    1
   159    70   149    1
   160    71    74    1
   161    71   151    1
   162    72    73    1
   163    72    77    1
   164    72   152    1
   165    73   153    1
   166    74    76    1
   167    74   154    1
   168    75    76    1
   169    75    78    1
   170    75   155    1
   171    76   157    1
   172    77   158    1
   173    77   159    1
   174    78   162    1
   175    78   163    1
   176    79    80    1
   177    79   164    1
   178    80    81    1
   179    80   168    1
   180    81    83    1
   181    81   169    1
   182    82    83    1
   183    82    84    1
   184    82   171    1
   185    83   172    1
   186    84   174    1
   187    84   175    1
   188    84   176    1
