@<TRIPOS>MOLECULE
IMPHY012816
 30 29 0 0 0
SMALL
GASTEIGER

@<TRIPOS>ATOM
      1 O           5.4641    0.4400    0.0000 O.3     1  UNL1       -0.4605
      2 O           4.5981   -1.0600    0.0000 O.2     1  UNL1       -0.2508
      3 C           8.9282    0.4400    0.0000 C.3     1  UNL1       -0.0349
      4 C           9.7942   -0.0600    0.0000 C.3     1  UNL1       -0.0525
      5 C           3.7320    0.4400    0.0000 C.3     1  UNL1        0.0447
      6 C           2.8660   -0.0600    0.0000 C.3     1  UNL1       -0.0458
      7 C           8.0622   -0.0600    0.0000 C.2     1  UNL1       -0.0848
      8 C           6.3301   -0.0600    0.0000 C.3     1  UNL1        0.1107
      9 C          10.6603    0.4400    0.0000 C.3     1  UNL1       -0.0650
     10 C           7.1962    0.4400    0.0000 C.2     1  UNL1       -0.0510
     11 C           4.5981   -0.0600    0.0000 C.2     1  UNL1        0.3074
     12 C           2.0000    0.4400    0.0000 C.3     1  UNL1       -0.0648
     13 H           9.3267    0.9149    0.0000 H       1  UNL1        0.0307
     14 H           8.5297    0.9149    0.0000 H       1  UNL1        0.0307
     15 H           9.3957   -0.5349    0.0000 H       1  UNL1        0.0266
     16 H          10.1928   -0.5349    0.0000 H       1  UNL1        0.0266
     17 H           4.1306    0.9149    0.0000 H       1  UNL1        0.0377
     18 H           3.3335    0.9149    0.0000 H       1  UNL1        0.0377
     19 H           2.4675   -0.5349    0.0000 H       1  UNL1        0.0268
     20 H           3.2646   -0.5349    0.0000 H       1  UNL1        0.0268
     21 H           8.0622   -0.6800    0.0000 H       1  UNL1        0.0570
     22 H           5.9316   -0.5349    0.0000 H       1  UNL1        0.0743
     23 H           6.7287   -0.5349    0.0000 H       1  UNL1        0.0743
     24 H          10.9703   -0.0969    0.0000 H       1  UNL1        0.0230
     25 H          11.1972    0.7500    0.0000 H       1  UNL1        0.0230
     26 H          10.3503    0.9769    0.0000 H       1  UNL1        0.0230
     27 H           7.1962    1.0600    0.0000 H       1  UNL1        0.0602
     28 H           2.3100    0.9769    0.0000 H       1  UNL1        0.0230
     29 H           1.4631    0.7500    0.0000 H       1  UNL1        0.0230
     30 H           1.6900   -0.0969    0.0000 H       1  UNL1        0.0230
@<TRIPOS>BOND
     1     1     8    1
     2     1    11    1
     3     2    11    2
     4     3     4    1
     5     3     7    1
     6     3    13    1
     7     3    14    1
     8     4     9    1
     9     4    15    1
    10     4    16    1
    11     5     6    1
    12     5    11    1
    13     5    17    1
    14     5    18    1
    15     6    12    1
    16     6    19    1
    17     6    20    1
    18     7    10    2
    19     7    21    1
    20     8    10    1
    21     8    22    1
    22     8    23    1
    23     9    24    1
    24     9    25    1
    25     9    26    1
    26    10    27    1
    27    12    28    1
    28    12    29    1
    29    12    30    1
