@<TRIPOS>MOLECULE
IMPHY013430
 47 50 0 0 0
SMALL
GASTEIGER

@<TRIPOS>ATOM
      1 O           5.4239    2.9691    0.0000 O.3     1  UNL1       -0.4854
      2 O           6.1959   -0.2919    0.0000 O.2     1  UNL1       -0.4540
      3 O           9.0271    0.8933    0.0000 O.2     1  UNL1       -0.2866
      4 O           9.7700   -0.7875    0.0000 O.3     1  UNL1       -0.5058
      5 O           2.3793    1.5099    0.0000 O.3     1  UNL1       -0.5066
      6 O           7.5805   -3.6638    0.0000 O.3     1  UNL1       -0.4949
      7 C           6.3478    3.3517    0.0000 C.3     1  UNL1        0.1054
      8 C           7.2717    2.9691    0.0000 C.3     1  UNL1       -0.0092
      9 C           7.6543    2.0452    0.0000 C.3     1  UNL1       -0.0169
     10 C           7.2717    1.1213    0.0000 C.ar    1  UNL1        0.0431
     11 C           6.7305    4.2756    0.0000 C.3     1  UNL1       -0.0252
     12 C           5.9651    4.2756    0.0000 C.3     1  UNL1       -0.0252
     13 C           6.3478    0.7386    0.0000 C.ar    1  UNL1        0.1459
     14 C           5.4239    1.1213    0.0000 C.ar    1  UNL1        0.0595
     15 C           5.0412    2.0452    0.0000 C.ar    1  UNL1        0.1354
     16 C           8.1077    0.5000    0.0000 C.ar    1  UNL1        0.1998
     17 C           7.9797   -0.5337    0.0000 C.ar    1  UNL1        0.1057
     18 C           7.0174   -0.9323    0.0000 C.ar    1  UNL1        0.1463
     19 C           4.8026    0.2852    0.0000 C.ar    1  UNL1       -0.0441
     20 C           4.0107    2.1970    0.0000 C.ar    1  UNL1        0.0223
     21 C           8.8506   -1.1809    0.0000 C.ar    1  UNL1        0.1347
     22 C           3.3703    1.3756    0.0000 C.ar    1  UNL1        0.1204
     23 C           6.8592   -2.0058    0.0000 C.ar    1  UNL1        0.0233
     24 C           3.7689    0.4132    0.0000 C.ar    1  UNL1       -0.0193
     25 C           7.7149   -2.6729    0.0000 C.ar    1  UNL1        0.1271
     26 C           8.7173   -2.2577    0.0000 C.ar    1  UNL1        0.0225
     27 C           8.3715   -4.2756    0.0000 C.3     1  UNL1        0.0788
     28 H           7.8864    3.0500    0.0000 H       1  UNL1        0.0307
     29 H           7.3526    3.5838    0.0000 H       1  UNL1        0.0307
     30 H           8.1462    1.6677    0.0000 H       1  UNL1        0.0317
     31 H           8.1462    2.4226    0.0000 H       1  UNL1        0.0317
     32 H           7.3033    4.0384    0.0000 H       1  UNL1        0.0268
     33 H           6.9677    4.8484    0.0000 H       1  UNL1        0.0268
     34 H           6.1577    4.5129    0.0000 H       1  UNL1        0.0268
     35 H           6.5379    4.5129    0.0000 H       1  UNL1        0.0268
     36 H           5.7278    4.8484    0.0000 H       1  UNL1        0.0268
     37 H           5.3923    4.0384    0.0000 H       1  UNL1        0.0268
     38 H           5.0465   -0.2848    0.0000 H       1  UNL1        0.0627
     39 H           3.7801    2.7726    0.0000 H       1  UNL1        0.0691
     40 H           6.2837   -2.2364    0.0000 H       1  UNL1        0.0691
     41 H           3.3933   -0.0801    0.0000 H       1  UNL1        0.0654
     42 H           9.2106   -2.6332    0.0000 H       1  UNL1        0.0691
     43 H          10.2662   -1.1593    0.0000 H       1  UNL1        0.2922
     44 H           2.0000    1.0195    0.0000 H       1  UNL1        0.2921
     45 H           7.9922   -4.7660    0.0000 H       1  UNL1        0.0660
     46 H           8.8619   -4.6549    0.0000 H       1  UNL1        0.0660
     47 H           8.7508   -3.7852    0.0000 H       1  UNL1        0.0660
@<TRIPOS>BOND
     1     1     7    1
     2     1    15    1
     3     2    13   ar
     4     2    18   ar
     5     3    16    2
     6     4    21    1
     7     4    43    1
     8     5    22    1
     9     5    44    1
    10     6    25    1
    11     6    27    1
    12     7     8    1
    13     7    11    1
    14     7    12    1
    15     8     9    1
    16     8    28    1
    17     8    29    1
    18     9    10    1
    19     9    30    1
    20     9    31    1
    21    10    13   ar
    22    10    16   ar
    23    11    32    1
    24    11    33    1
    25    11    34    1
    26    12    35    1
    27    12    36    1
    28    12    37    1
    29    13    14    1
    30    14    15   ar
    31    14    19   ar
    32    15    20   ar
    33    16    17   ar
    34    17    18   ar
    35    17    21   ar
    36    18    23   ar
    37    19    24   ar
    38    19    38    1
    39    20    22   ar
    40    20    39    1
    41    21    26   ar
    42    22    24   ar
    43    23    25   ar
    44    23    40    1
    45    24    41    1
    46    25    26   ar
    47    26    42    1
    48    27    45    1
    49    27    46    1
    50    27    47    1
