@<TRIPOS>MOLECULE
IMPHY008826
 26 31 0 0 0
SMALL
GASTEIGER

@<TRIPOS>ATOM
      1 O           3.5489    4.0096    0.0000 O.3     1  UNL1       -0.4346
      2 O           5.0559   -4.0096    0.0000 O.3     1  UNL1       -0.4346
      3 O           2.0000    3.3680    0.0000 O.3     1  UNL1       -0.4346
      4 O           6.6048   -3.3680    0.0000 O.3     1  UNL1       -0.4346
      5 N           3.4270   -1.9243    0.0000 N.3     1  UNL1       -0.3008
      6 C           5.2263    0.9239    0.0000 C.3     1  UNL1        0.0459
      7 C           3.3785   -0.9239    0.0000 C.3     1  UNL1        0.0459
      8 C           2.9958    0.0000    0.0000 C.3     1  UNL1        0.0407
      9 C           5.6089    0.0000    0.0000 C.3     1  UNL1        0.0407
     10 C           4.3024    1.3066    0.0000 C.ar    1  UNL1       -0.0136
     11 C           4.3024   -1.3066    0.0000 C.ar    1  UNL1       -0.0136
     12 C           3.3785    0.9239    0.0000 C.ar    1  UNL1       -0.0207
     13 C           5.2263   -0.9239    0.0000 C.ar    1  UNL1       -0.0207
     14 C           4.4542    2.3371    0.0000 C.ar    1  UNL1        0.0366
     15 C           4.1505   -2.3371    0.0000 C.ar    1  UNL1        0.0366
     16 C           2.5424    1.5452    0.0000 C.ar    1  UNL1        0.0357
     17 C           6.0623   -1.5452    0.0000 C.ar    1  UNL1        0.0357
     18 C           3.6328    2.9775    0.0000 C.ar    1  UNL1        0.1761
     19 C           4.9720   -2.9775    0.0000 C.ar    1  UNL1        0.1761
     20 C           2.6704    2.5789    0.0000 C.ar    1  UNL1        0.1761
     21 C           5.9343   -2.5789    0.0000 C.ar    1  UNL1        0.1761
     22 C           2.5418    4.2504    0.0000 C.3     1  UNL1        0.4294
     23 C           6.0630   -4.2504    0.0000 C.3     1  UNL1        0.4294
     24 H           5.7919    1.4896    0.0000 H       1  UNL1        0.0520
     25 H           2.5979   -1.0989    0.0000 H       1  UNL1        0.0520
     26 H           2.9003   -2.2515    0.0000 H       1  UNL1        0.1231
@<TRIPOS>BOND
     1     1    18    1
     2     1    22    1
     3     2    19    1
     4     2    23    1
     5     3    20    1
     6     3    22    1
     7     4    21    1
     8     4    23    1
     9     5     6    1
    10     5     7    1
    11     5    26    1
    12     6     9    1
    13     6    10    1
    14     6    24    1
    15     7     8    1
    16     7    11    1
    17     7    25    1
    18     8    12    1
    19     9    13    1
    20    10    12   ar
    21    10    14   ar
    22    11    13   ar
    23    11    15   ar
    24    12    16   ar
    25    13    17   ar
    26    14    18   ar
    27    15    19   ar
    28    16    20   ar
    29    17    21   ar
    30    18    20   ar
    31    19    21   ar
