@<TRIPOS>MOLECULE
IMPHY000602
 24 24 0 0 0
SMALL
GASTEIGER

@<TRIPOS>ATOM
      1 C           3.7320    1.2500    0.0000 C.3     1  UNL1       -0.0215
      2 C           3.7320    0.2500    0.0000 C.ar    1  UNL1       -0.0445
      3 C           4.5981    1.7500    0.0000 C.3     1  UNL1       -0.0586
      4 C           2.8660    1.7500    0.0000 C.3     1  UNL1       -0.0586
      5 C           2.8660   -0.2500    0.0000 C.ar    1  UNL1       -0.0554
      6 C           4.5981   -0.2500    0.0000 C.ar    1  UNL1       -0.0583
      7 C           2.8660   -1.2500    0.0000 C.ar    1  UNL1       -0.0502
      8 C           4.5981   -1.2500    0.0000 C.ar    1  UNL1       -0.0612
      9 C           3.7320   -1.7500    0.0000 C.ar    1  UNL1       -0.0588
     10 C           2.0000   -1.7500    0.0000 C.3     1  UNL1       -0.0397
     11 H           3.7320    1.8700    0.0000 H       1  UNL1        0.0343
     12 H           4.9081    1.2131    0.0000 H       1  UNL1        0.0235
     13 H           5.1350    2.0600    0.0000 H       1  UNL1        0.0235
     14 H           4.2881    2.2869    0.0000 H       1  UNL1        0.0235
     15 H           3.1760    2.2869    0.0000 H       1  UNL1        0.0235
     16 H           2.3291    2.0600    0.0000 H       1  UNL1        0.0235
     17 H           2.5560    1.2131    0.0000 H       1  UNL1        0.0235
     18 H           2.3291    0.0600    0.0000 H       1  UNL1        0.0623
     19 H           5.1350    0.0600    0.0000 H       1  UNL1        0.0620
     20 H           5.1350   -1.5600    0.0000 H       1  UNL1        0.0618
     21 H           3.7320   -2.3700    0.0000 H       1  UNL1        0.0620
     22 H           1.6900   -1.2131    0.0000 H       1  UNL1        0.0278
     23 H           1.4631   -2.0600    0.0000 H       1  UNL1        0.0278
     24 H           2.3100   -2.2869    0.0000 H       1  UNL1        0.0278
@<TRIPOS>BOND
     1     1     2    1
     2     1     3    1
     3     1     4    1
     4     1    11    1
     5     2     5   ar
     6     2     6   ar
     7     3    12    1
     8     3    13    1
     9     3    14    1
    10     4    15    1
    11     4    16    1
    12     4    17    1
    13     5     7   ar
    14     5    18    1
    15     6     8   ar
    16     6    19    1
    17     7     9   ar
    18     7    10    1
    19     8     9   ar
    20     8    20    1
    21     9    21    1
    22    10    22    1
    23    10    23    1
    24    10    24    1
