@<TRIPOS>MOLECULE
IMPHY012576
 70 74 0 0 0
SMALL
GASTEIGER

@<TRIPOS>ATOM
      1 O           6.7346   -3.5492    0.0000 O.3     1  UNL1       -0.3675
      2 O           5.4862   -3.7178    0.0000 O.3     1  UNL1       -0.3910
      3 O           7.2346   -3.6832    0.0000 O.3     1  UNL1       -0.4641
      4 O           6.3686   -5.1832    0.0000 O.2     1  UNL1       -0.2512
      5 O           3.7805    5.1832    0.0000 O.3     1  UNL1       -0.4571
      6 O           2.0000    5.1105    0.0000 O.2     1  UNL1       -0.2456
      7 C           6.3686   -2.1832    0.0000 C.3     1  UNL1        0.0649
      8 C           6.3686   -1.1832    0.0000 C.3     1  UNL1       -0.0241
      9 C           7.2346   -2.6832    0.0000 C.3     1  UNL1        0.1041
     10 C           5.4746   -0.6486    0.0000 C.3     1  UNL1       -0.0340
     11 C           4.5685   -1.1624    0.0000 C.3     1  UNL1       -0.0353
     12 C           5.4746   -2.7179    0.0000 C.3     1  UNL1        0.0672
     13 C           4.5685   -2.2040    0.0000 C.3     1  UNL1       -0.0230
     14 C           7.2346   -0.6832    0.0000 C.3     1  UNL1       -0.0491
     15 C           5.4997    0.4362    0.0000 C.3     1  UNL1       -0.0440
     16 C           8.1006   -2.1832    0.0000 C.3     1  UNL1       -0.0208
     17 C           7.7346   -3.5492    0.0000 C.3     1  UNL1        0.0782
     18 C           4.5685    0.9931    0.0000 C.3     1  UNL1       -0.0289
     19 C           3.6248   -0.6272    0.0000 C.3     1  UNL1       -0.0468
     20 C           8.1006   -1.1832    0.0000 C.3     1  UNL1       -0.0501
     21 C           6.3686   -3.1832    0.0000 C.3     1  UNL1        0.1034
     22 C           3.6248    0.4578    0.0000 C.3     1  UNL1       -0.0382
     23 C           4.0786    1.8648    0.0000 C.3     1  UNL1       -0.0436
     24 C           5.0785    1.8533    0.0000 C.3     1  UNL1       -0.0593
     25 C           2.7607    0.9612    0.0000 C.3     1  UNL1       -0.0619
     26 C           4.5886    2.7250    0.0000 C.3     1  UNL1       -0.0276
     27 C           7.2346   -4.6832    0.0000 C.2     1  UNL1        0.3040
     28 C           4.0986    3.5968    0.0000 C.2     1  UNL1       -0.0259
     29 C           4.5159    4.5055    0.0000 C.3     1  UNL1        0.1144
     30 C           8.1006   -5.1832    0.0000 C.3     1  UNL1        0.0332
     31 C           3.1054    3.7128    0.0000 C.2     1  UNL1        0.0249
     32 C           2.9088    4.6933    0.0000 C.2     1  UNL1        0.3323
     33 H           7.1047   -1.6082    0.0000 H       1  UNL1        0.0312
     34 H           6.0174   -0.3490    0.0000 H       1  UNL1        0.0306
     35 H           4.0328   -1.4745    0.0000 H       1  UNL1        0.0304
     36 H           4.9407   -3.0330    0.0000 H       1  UNL1        0.0601
     37 H           3.9577   -2.0979    0.0000 H       1  UNL1        0.0293
     38 H           4.3595   -2.7877    0.0000 H       1  UNL1        0.0293
     39 H           7.6331   -0.2083    0.0000 H       1  UNL1        0.0268
     40 H           6.8360   -0.2083    0.0000 H       1  UNL1        0.0268
     41 H           6.1079    0.3160    0.0000 H       1  UNL1        0.0273
     42 H           5.7222    1.0148    0.0000 H       1  UNL1        0.0273
     43 H           8.3126   -2.7658    0.0000 H       1  UNL1        0.0294
     44 H           8.7112   -2.0755    0.0000 H       1  UNL1        0.0294
     45 H           7.8422   -4.1598    0.0000 H       1  UNL1        0.0589
     46 H           8.3172   -3.3372    0.0000 H       1  UNL1        0.0589
     47 H           3.0139   -0.5211    0.0000 H       1  UNL1        0.0271
     48 H           3.4157   -1.2108    0.0000 H       1  UNL1        0.0271
     49 H           8.7112   -1.2909    0.0000 H       1  UNL1        0.0266
     50 H           8.3126   -0.6006    0.0000 H       1  UNL1        0.0266
     51 H           5.7580   -3.0755    0.0000 H       1  UNL1        0.0705
     52 H           6.1565   -3.7658    0.0000 H       1  UNL1        0.0705
     53 H           3.0872    0.1489    0.0000 H       1  UNL1        0.0303
     54 H           3.6083    2.2688    0.0000 H       1  UNL1        0.0274
     55 H           3.5991    1.4718    0.0000 H       1  UNL1        0.0274
     56 H           5.6118    1.5371    0.0000 H       1  UNL1        0.0235
     57 H           5.3947    2.3866    0.0000 H       1  UNL1        0.0235
     58 H           4.5452    2.1694    0.0000 H       1  UNL1        0.0235
     59 H           4.9528   -4.0340    0.0000 H       1  UNL1        0.2098
     60 H           3.0727    1.4969    0.0000 H       1  UNL1        0.0233
     61 H           2.2249    1.2732    0.0000 H       1  UNL1        0.0233
     62 H           2.4486    0.4254    0.0000 H       1  UNL1        0.0233
     63 H           5.0589    2.3210    0.0000 H       1  UNL1        0.0311
     64 H           5.0681    3.1180    0.0000 H       1  UNL1        0.0311
     65 H           5.0492    4.1894    0.0000 H       1  UNL1        0.0746
     66 H           4.8861    5.0029    0.0000 H       1  UNL1        0.0746
     67 H           7.7906   -5.7202    0.0000 H       1  UNL1        0.0342
     68 H           8.6375   -5.4932    0.0000 H       1  UNL1        0.0342
     69 H           8.4106   -4.6463    0.0000 H       1  UNL1        0.0342
     70 H           2.6852    3.2568    0.0000 H       1  UNL1        0.0689
@<TRIPOS>BOND
     1     9     1    1
     2     1    17    1
     3    12     2    1
     4     2    59    1
     5     3    21    1
     6     3    27    1
     7     4    27    2
     8     5    29    1
     9     5    32    1
    10     6    32    2
    11     7     8    1
    12     7     9    1
    13     7    12    1
    14     7    21    1
    15     8    10    1
    16     8    14    1
    17     8    33    1
    18     9    16    1
    19     9    17    1
    20    10    11    1
    21    10    15    1
    22    10    34    1
    23    11    13    1
    24    11    19    1
    25    11    35    1
    26    12    13    1
    27    12    36    1
    28    13    37    1
    29    13    38    1
    30    14    20    1
    31    14    39    1
    32    14    40    1
    33    15    18    1
    34    15    41    1
    35    15    42    1
    36    16    20    1
    37    16    43    1
    38    16    44    1
    39    17    45    1
    40    17    46    1
    41    18    22    1
    42    18    23    1
    43    18    24    1
    44    19    22    1
    45    19    47    1
    46    19    48    1
    47    20    49    1
    48    20    50    1
    49    21    51    1
    50    21    52    1
    51    22    25    1
    52    22    53    1
    53    23    26    1
    54    23    54    1
    55    23    55    1
    56    24    56    1
    57    24    57    1
    58    24    58    1
    59    25    60    1
    60    25    61    1
    61    25    62    1
    62    26    28    1
    63    26    63    1
    64    26    64    1
    65    27    30    1
    66    28    29    1
    67    28    31    2
    68    29    65    1
    69    29    66    1
    70    30    67    1
    71    30    68    1
    72    30    69    1
    73    31    32    1
    74    31    70    1
