@<TRIPOS>MOLECULE
IMPHY010434
 57 62 0 0 0
SMALL
GASTEIGER

@<TRIPOS>ATOM
      1 O           5.7263    0.1585    0.0000 O.3     1  UNL1       -0.4823
      2 O           5.9355    3.1304    0.0000 O.3     1  UNL1       -0.4906
      3 O           2.4721   -1.5608    0.0000 O.3     1  UNL1       -0.4815
      4 O           9.5327    3.2081    0.0000 O.3     1  UNL1       -0.4814
      5 O           7.6839    0.0958    0.0000 O.3     1  UNL1       -0.4939
      6 C           5.0695    1.6304    0.0000 C.3     1  UNL1        0.0631
      7 C           5.9355    1.1304    0.0000 C.3     1  UNL1        0.1420
      8 C           4.3325    0.9633    0.0000 C.ar    1  UNL1        0.0053
      9 C           6.8015    1.6304    0.0000 C.ar    1  UNL1        0.0773
     10 C           5.0695    2.6304    0.0000 C.3     1  UNL1        0.1002
     11 C           4.7376    0.0555    0.0000 C.ar    1  UNL1        0.1357
     12 C           6.8015    2.6304    0.0000 C.ar    1  UNL1        0.1342
     13 C           4.1427   -0.7920    0.0000 C.ar    1  UNL1        0.0584
     14 C           7.6955    1.0957    0.0000 C.ar    1  UNL1        0.1409
     15 C           3.3044    1.0865    0.0000 C.ar    1  UNL1       -0.0511
     16 C           8.6016    1.6095    0.0000 C.ar    1  UNL1        0.0588
     17 C           3.1120   -0.6926    0.0000 C.ar    1  UNL1        0.1324
     18 C           7.6955    3.1650    0.0000 C.ar    1  UNL1        0.0230
     19 C           8.6016    2.6512    0.0000 C.ar    1  UNL1        0.1358
     20 C           2.6900    0.2530    0.0000 C.ar    1  UNL1       -0.0188
     21 C           2.9116   -2.5458    0.0000 C.3     1  UNL1        0.1235
     22 C           4.6049   -1.7665    0.0000 C.2     1  UNL1       -0.0478
     23 C          10.4765    2.6728    0.0000 C.3     1  UNL1        0.1235
     24 C           3.9852   -2.6493    0.0000 C.2     1  UNL1       -0.0408
     25 C           9.5327    1.0526    0.0000 C.2     1  UNL1       -0.0478
     26 C          10.4765    1.5878    0.0000 C.2     1  UNL1       -0.0408
     27 C           2.8118   -3.5408    0.0000 C.3     1  UNL1       -0.0215
     28 C           2.0000   -2.9568    0.0000 C.3     1  UNL1       -0.0215
     29 C          11.4765    2.6767    0.0000 C.3     1  UNL1       -0.0215
     30 C          10.9731    3.5408    0.0000 C.3     1  UNL1       -0.0215
     31 C           8.5441   -0.4142    0.0000 C.3     1  UNL1        0.0788
     32 H           4.2925    1.9751    0.0000 H       1  UNL1        0.0423
     33 H           6.6225    0.6298    0.0000 H       1  UNL1        0.0794
     34 H           4.8574    3.2130    0.0000 H       1  UNL1        0.0704
     35 H           4.4589    2.5227    0.0000 H       1  UNL1        0.0704
     36 H           3.0583    1.6555    0.0000 H       1  UNL1        0.0623
     37 H           7.6883    3.7850    0.0000 H       1  UNL1        0.0691
     38 H           2.0736    0.3196    0.0000 H       1  UNL1        0.0654
     39 H           5.2227   -1.8189    0.0000 H       1  UNL1        0.0624
     40 H           4.2444   -3.2125    0.0000 H       1  UNL1        0.0611
     41 H           9.5255    0.4327    0.0000 H       1  UNL1        0.0624
     42 H          11.0122    1.2758    0.0000 H       1  UNL1        0.0611
     43 H           1.7452   -2.3916    0.0000 H       1  UNL1        0.0271
     44 H           2.1949   -3.4789    0.0000 H       1  UNL1        0.0271
     45 H           2.7499   -4.1577    0.0000 H       1  UNL1        0.0271
     46 H           3.4287   -3.6027    0.0000 H       1  UNL1        0.0271
     47 H           1.4348   -3.2117    0.0000 H       1  UNL1        0.0271
     48 H           2.2548   -3.5220    0.0000 H       1  UNL1        0.0271
     49 H          11.5113    3.2329    0.0000 H       1  UNL1        0.0271
     50 H          11.2811    4.0789    0.0000 H       1  UNL1        0.0271
     51 H          11.4789    2.0567    0.0000 H       1  UNL1        0.0271
     52 H          12.0965    2.6791    0.0000 H       1  UNL1        0.0271
     53 H          11.4741    3.2967    0.0000 H       1  UNL1        0.0271
     54 H          10.4350    3.8487    0.0000 H       1  UNL1        0.0271
     55 H           8.2279   -0.9475    0.0000 H       1  UNL1        0.0660
     56 H           9.0774   -0.7304    0.0000 H       1  UNL1        0.0660
     57 H           8.8603    0.1191    0.0000 H       1  UNL1        0.0660
@<TRIPOS>BOND
     1     1     7    1
     2     1    11    1
     3     2    10    1
     4     2    12    1
     5     3    17    1
     6     3    21    1
     7     4    19    1
     8     4    23    1
     9     5    14    1
    10     5    31    1
    11     6     7    1
    12     6     8    1
    13     6    10    1
    14     6    32    1
    15     7     9    1
    16     7    33    1
    17     8    11   ar
    18     8    15   ar
    19     9    12   ar
    20     9    14   ar
    21    10    34    1
    22    10    35    1
    23    11    13   ar
    24    12    18   ar
    25    13    17   ar
    26    13    22    1
    27    14    16   ar
    28    15    20   ar
    29    15    36    1
    30    16    19   ar
    31    16    25    1
    32    17    20   ar
    33    18    19   ar
    34    18    37    1
    35    20    38    1
    36    21    24    1
    37    21    27    1
    38    21    28    1
    39    22    24    2
    40    22    39    1
    41    23    26    1
    42    23    29    1
    43    23    30    1
    44    24    40    1
    45    25    26    2
    46    25    41    1
    47    26    42    1
    48    27    44    1
    49    27    45    1
    50    27    46    1
    51    28    43    1
    52    28    47    1
    53    28    48    1
    54    29    51    1
    55    29    52    1
    56    29    53    1
    57    30    49    1
    58    30    50    1
    59    30    54    1
    60    31    55    1
    61    31    56    1
    62    31    57    1
