@<TRIPOS>MOLECULE
IMPHY002784
 42 45 0 0 0
SMALL
GASTEIGER

@<TRIPOS>ATOM
      1 O           7.2762   -2.3550    0.0000 O.2     1  UNL1       -0.4916
      2 O           2.8680    0.1901    0.0000 O.3     1  UNL1       -0.4914
      3 O           9.0501   -1.3309    0.0000 O.2     1  UNL1       -0.2840
      4 O           2.8680    2.2384    0.0000 O.3     1  UNL1       -0.5033
      5 N           6.8422    1.7052    0.0000 N.3     1  UNL1       -0.3092
      6 C           6.3981    0.2142    0.0000 C.3     1  UNL1        0.0418
      7 C           7.2641    1.7142    0.0000 C.3     1  UNL1        0.0344
      8 C           7.2641    0.7142    0.0000 C.2     1  UNL1       -0.0343
      9 C           6.1950    0.5841    0.0000 C.3     1  UNL1       -0.0233
     10 C           5.5320    0.7142    0.0000 C.ar    1  UNL1       -0.0263
     11 C           6.3981    2.2142    0.0000 C.3     1  UNL1       -0.0079
     12 C           6.1114    1.3798    0.0000 C.3     1  UNL1       -0.0022
     13 C           5.5320    1.7142    0.0000 C.ar    1  UNL1       -0.0376
     14 C           6.3820   -0.8273    0.0000 C.2     1  UNL1       -0.0239
     15 C           8.1741    0.2074    0.0000 C.2     1  UNL1       -0.0094
     16 C           4.6381    0.1796    0.0000 C.ar    1  UNL1       -0.0117
     17 C           7.2800   -1.3550    0.0000 C.2     1  UNL1        0.1638
     18 C           4.6381    2.2489    0.0000 C.ar    1  UNL1       -0.0130
     19 C           8.1821   -0.8342    0.0000 C.2     1  UNL1        0.2200
     20 C           3.7320    0.6934    0.0000 C.ar    1  UNL1        0.1616
     21 C           3.7320    1.7350    0.0000 C.ar    1  UNL1        0.1587
     22 C           8.1403   -2.8584    0.0000 C.3     1  UNL1        0.0790
     23 C           2.0000    0.6867    0.0000 C.3     1  UNL1        0.0790
     24 H           7.6891    2.4503    0.0000 H       1  UNL1        0.0510
     25 H           5.6002    0.7593    0.0000 H       1  UNL1        0.0292
     26 H           6.7867    0.7694    0.0000 H       1  UNL1        0.0292
     27 H           6.7966    2.6892    0.0000 H       1  UNL1        0.0332
     28 H           5.9995    2.6892    0.0000 H       1  UNL1        0.0332
     29 H           5.9198    1.9694    0.0000 H       1  UNL1        0.0425
     30 H           5.5049    1.2508    0.0000 H       1  UNL1        0.0425
     31 H           6.9711    2.3116    0.0000 H       1  UNL1        0.1225
     32 H           5.8415   -1.1311    0.0000 H       1  UNL1        0.0622
     33 H           8.7074    0.5236    0.0000 H       1  UNL1        0.0657
     34 H           4.6453   -0.4404    0.0000 H       1  UNL1        0.0658
     35 H           4.6453    2.8688    0.0000 H       1  UNL1        0.0658
     36 H           2.8703    2.8584    0.0000 H       1  UNL1        0.2923
     37 H           7.8282   -3.3941    0.0000 H       1  UNL1        0.0660
     38 H           8.6760   -3.1704    0.0000 H       1  UNL1        0.0660
     39 H           8.4523   -2.3226    0.0000 H       1  UNL1        0.0660
     40 H           2.3079    1.2249    0.0000 H       1  UNL1        0.0660
     41 H           1.4619    0.9947    0.0000 H       1  UNL1        0.0660
     42 H           1.6921    0.1486    0.0000 H       1  UNL1        0.0660
@<TRIPOS>BOND
     1     1    17    1
     2     1    22    1
     3     2    20    1
     4     2    23    1
     5     3    19    2
     6     4    21    1
     7     4    36    1
     8     5     7    1
     9     5    12    1
    10     5    31    1
    11     6     8    1
    12     6     9    1
    13     6    10    1
    14     6    14    1
    15     7     8    1
    16     7    11    1
    17     7    24    1
    18     8    15    2
    19     9    12    1
    20     9    25    1
    21     9    26    1
    22    10    13   ar
    23    10    16   ar
    24    11    13    1
    25    11    27    1
    26    11    28    1
    27    12    29    1
    28    12    30    1
    29    13    18   ar
    30    14    17    2
    31    14    32    1
    32    15    19    1
    33    15    33    1
    34    16    20   ar
    35    16    34    1
    36    17    19    1
    37    18    21   ar
    38    18    35    1
    39    20    21   ar
    40    22    37    1
    41    22    38    1
    42    22    39    1
    43    23    40    1
    44    23    41    1
    45    23    42    1
