@<TRIPOS>MOLECULE
IMPHY007086
 17 17 0 0 0
SMALL
GASTEIGER

@<TRIPOS>ATOM
      1 N           2.8090   -0.2694    0.0000 N.3     1  UNL1       -0.3053
      2 C           3.3090    1.2694    0.0000 C.3     1  UNL1       -0.0391
      3 C           2.3090    1.2694    0.0000 C.3     1  UNL1       -0.0391
      4 C           3.6180    0.3184    0.0000 C.3     1  UNL1       -0.0014
      5 C           2.0000    0.3184    0.0000 C.3     1  UNL1       -0.0014
      6 C           2.8090   -1.2694    0.0000 C.3     1  UNL1       -0.0128
      7 H           3.9155    1.3983    0.0000 H       1  UNL1        0.0278
      8 H           3.2442    1.8860    0.0000 H       1  UNL1        0.0278
      9 H           2.3738    1.8860    0.0000 H       1  UNL1        0.0278
     10 H           1.7026    1.3983    0.0000 H       1  UNL1        0.0278
     11 H           1.4336    0.5705    0.0000 H       1  UNL1        0.0426
     12 H           1.6900   -0.2186    0.0000 H       1  UNL1        0.0426
     13 H           3.9280   -0.2186    0.0000 H       1  UNL1        0.0426
     14 H           4.1844    0.5705    0.0000 H       1  UNL1        0.0426
     15 H           2.1890   -1.2694    0.0000 H       1  UNL1        0.0391
     16 H           2.8090   -1.8894    0.0000 H       1  UNL1        0.0391
     17 H           3.4290   -1.2694    0.0000 H       1  UNL1        0.0391
@<TRIPOS>BOND
     1     1     4    1
     2     1     5    1
     3     1     6    1
     4     2     3    1
     5     2     4    1
     6     2     7    1
     7     2     8    1
     8     3     5    1
     9     3     9    1
    10     3    10    1
    11     4    13    1
    12     4    14    1
    13     5    11    1
    14     5    12    1
    15     6    15    1
    16     6    16    1
    17     6    17    1
