@<TRIPOS>MOLECULE
IMPHY010038
 51 54 0 0 0
SMALL
GASTEIGER

@<TRIPOS>ATOM
      1 O           4.2690   -1.2857    0.0000 O.3     1  UNL1       -0.3339
      2 O           6.0010   -1.2857    0.0000 O.3     1  UNL1       -0.4515
      3 O           4.2690   -4.2857    0.0000 O.3     1  UNL1       -0.3864
      4 O           2.5369   -3.2857    0.0000 O.3     1  UNL1       -0.3866
      5 O           6.0010   -3.2857    0.0000 O.3     1  UNL1       -0.3829
      6 O           6.8671    1.2143    0.0000 O.2     1  UNL1       -0.1997
      7 O           3.3648    1.2112    0.0000 O.3     1  UNL1       -0.5057
      8 O           5.1229    4.2836    0.0000 O.3     1  UNL1       -0.5063
      9 O          10.3312   -1.7857    0.0000 O.3     1  UNL1       -0.5068
     10 C           4.2690   -3.2857    0.0000 C.3     1  UNL1        0.1151
     11 C           3.4030   -2.7857    0.0000 C.3     1  UNL1        0.1096
     12 C           5.1350   -2.7857    0.0000 C.3     1  UNL1        0.1454
     13 C           3.4030   -1.7857    0.0000 C.3     1  UNL1        0.0883
     14 C           5.1350   -1.7857    0.0000 C.3     1  UNL1        0.2312
     15 C           2.5369   -1.2857    0.0000 C.3     1  UNL1       -0.0360
     16 C           6.0010   -0.2857    0.0000 C.ar    1  UNL1        0.2288
     17 C           6.8671    0.2143    0.0000 C.ar    1  UNL1        0.4045
     18 C           5.1350    0.2143    0.0000 C.ar    1  UNL1        0.0093
     19 C           5.1350    1.2143    0.0000 C.ar    1  UNL1        0.1241
     20 C           6.0010    1.7143    0.0000 C.ar    1  UNL1        0.3708
     21 C           7.7331   -0.2857    0.0000 C.ar    1  UNL1        0.0830
     22 C           4.2250    1.7212    0.0000 C.ar    1  UNL1        0.1366
     23 C           6.0171    2.7558    0.0000 C.ar    1  UNL1        0.0847
     24 C           7.7331   -1.2857    0.0000 C.ar    1  UNL1       -0.0420
     25 C           8.5991    0.2143    0.0000 C.ar    1  UNL1       -0.0420
     26 C           4.2170    2.7628    0.0000 C.ar    1  UNL1        0.0225
     27 C           5.1191    3.2836    0.0000 C.ar    1  UNL1        0.1293
     28 C           8.5991   -1.7857    0.0000 C.ar    1  UNL1       -0.0193
     29 C           9.4651   -0.2857    0.0000 C.ar    1  UNL1       -0.0193
     30 C           9.4651   -1.2857    0.0000 C.ar    1  UNL1        0.1169
     31 H           4.8059   -3.5957    0.0000 H       1  UNL1        0.0648
     32 H           3.4030   -3.4057    0.0000 H       1  UNL1        0.0646
     33 H           5.6720   -2.4757    0.0000 H       1  UNL1        0.0683
     34 H           3.4030   -1.1657    0.0000 H       1  UNL1        0.0621
     35 H           5.1350   -1.1657    0.0000 H       1  UNL1        0.1084
     36 H           2.8469   -0.7487    0.0000 H       1  UNL1        0.0255
     37 H           2.0000   -0.9757    0.0000 H       1  UNL1        0.0255
     38 H           2.2269   -1.8226    0.0000 H       1  UNL1        0.0255
     39 H           3.7320   -4.5957    0.0000 H       1  UNL1        0.2100
     40 H           2.0000   -2.9757    0.0000 H       1  UNL1        0.2100
     41 H           6.0010   -3.9057    0.0000 H       1  UNL1        0.2102
     42 H           4.5981   -0.0957    0.0000 H       1  UNL1        0.0667
     43 H           6.5576    3.0596    0.0000 H       1  UNL1        0.0749
     44 H           7.1962   -1.5957    0.0000 H       1  UNL1        0.0628
     45 H           8.5991    0.8343    0.0000 H       1  UNL1        0.0628
     46 H           3.6788    3.0707    0.0000 H       1  UNL1        0.0691
     47 H           8.5991   -2.4057    0.0000 H       1  UNL1        0.0654
     48 H          10.0021    0.0243    0.0000 H       1  UNL1        0.0654
     49 H           2.8243    1.5150    0.0000 H       1  UNL1        0.2922
     50 H           4.5872    4.5957    0.0000 H       1  UNL1        0.2921
     51 H          10.8681   -1.4757    0.0000 H       1  UNL1        0.2921
@<TRIPOS>UNITY_ATOM_ATTR
6 1
charge 1
@<TRIPOS>BOND
     1     1    13    1
     2     1    14    1
     3    14     2    1
     4     2    16    1
     5     3    10    1
     6     3    39    1
     7    11     4    1
     8     4    40    1
     9    12     5    1
    10     5    41    1
    11     6    17   ar
    12     6    20   ar
    13     7    22    1
    14     7    49    1
    15     8    27    1
    16     8    50    1
    17     9    30    1
    18     9    51    1
    19    10    11    1
    20    10    12    1
    21    10    31    1
    22    11    13    1
    23    11    32    1
    24    12    14    1
    25    12    33    1
    26    13    15    1
    27    13    34    1
    28    14    35    1
    29    15    36    1
    30    15    37    1
    31    15    38    1
    32    16    17   ar
    33    16    18   ar
    34    17    21    1
    35    18    19   ar
    36    18    42    1
    37    19    20   ar
    38    19    22   ar
    39    20    23   ar
    40    21    24   ar
    41    21    25   ar
    42    22    26   ar
    43    23    27   ar
    44    23    43    1
    45    24    28   ar
    46    24    44    1
    47    25    29   ar
    48    25    45    1
    49    26    27   ar
    50    26    46    1
    51    28    30   ar
    52    28    47    1
    53    29    30   ar
    54    29    48    1
