@<TRIPOS>MOLECULE
IMPHY013531
 153 162 0 0 0
SMALL
GASTEIGER

@<TRIPOS>ATOM
      1 O           5.5982    7.2943    0.0000 O.3     1  UNL1       -0.3448
      2 O           3.9370    6.2067    0.0000 O.3     1  UNL1       -0.3480
      3 O          12.0262    1.9399    0.0000 O.3     1  UNL1       -0.3451
      4 O          11.1602    0.4399    0.0000 O.3     1  UNL1       -0.3405
      5 O          13.7583    0.9399    0.0000 O.3     1  UNL1       -0.3841
      6 O          13.7583   -1.0601    0.0000 O.3     1  UNL1       -0.3864
      7 O          12.0262   -2.0601    0.0000 O.3     1  UNL1       -0.3865
      8 O          10.2942   -2.0601    0.0000 O.3     1  UNL1       -0.3460
      9 O           8.5621   -2.0601    0.0000 O.3     1  UNL1       -0.3431
     10 O          10.2942   -4.0601    0.0000 O.3     1  UNL1       -0.3153
     11 O           8.5621   -5.0601    0.0000 O.3     1  UNL1       -0.3864
     12 O           6.8300   -4.0601    0.0000 O.3     1  UNL1       -0.3866
     13 O           9.2942   -5.0601    0.0000 O.3     1  UNL1       -0.3206
     14 O          11.1602   -4.5601    0.0000 O.3     1  UNL1       -0.2942
     15 O          12.0262   -6.0601    0.0000 O.3     1  UNL1       -0.3429
     16 O          10.7942   -7.6582    0.0000 O.3     1  UNL1       -0.3889
     17 O           8.7942   -7.6582    0.0000 O.3     1  UNL1       -0.3867
     18 O          12.8922   -3.5601    0.0000 O.3     1  UNL1       -0.3841
     19 O          14.6243   -4.5601    0.0000 O.3     1  UNL1       -0.3864
     20 O          14.6243   -6.5601    0.0000 O.3     1  UNL1       -0.3866
     21 C           6.6742    5.0636    0.0000 C.3     1  UNL1       -0.0233
     22 C           7.5383    5.5670    0.0000 C.3     1  UNL1       -0.0295
     23 C           5.9346    5.7279    0.0000 C.3     1  UNL1       -0.0015
     24 C           8.4062    5.0703    0.0000 C.3     1  UNL1       -0.0306
     25 C           6.3362    6.6372    0.0000 C.3     1  UNL1        0.0660
     26 C           8.4101    4.0703    0.0000 C.3     1  UNL1       -0.0285
     27 C           7.3253    6.5380    0.0000 C.3     1  UNL1       -0.0226
     28 C           6.6780    4.0636    0.0000 C.3     1  UNL1       -0.0467
     29 C           4.9518    5.8308    0.0000 C.3     1  UNL1        0.0160
     30 C           7.5460    3.5670    0.0000 C.3     1  UNL1       -0.0486
     31 C           9.3061    3.5391    0.0000 C.3     1  UNL1       -0.0078
     32 C           4.7443    6.7969    0.0000 C.3     1  UNL1        0.1732
     33 C           5.8101    4.5603    0.0000 C.3     1  UNL1       -0.0590
     34 C           9.2981    5.6084    0.0000 C.3     1  UNL1       -0.0311
     35 C          10.2102    4.0564    0.0000 C.2     1  UNL1       -0.0648
     36 C           9.2852    2.4543    0.0000 C.3     1  UNL1       -0.0413
     37 C           4.2836    5.0868    0.0000 C.3     1  UNL1       -0.0572
     38 C           4.6368    7.7912    0.0000 C.3     1  UNL1        0.0020
     39 C          10.2061    5.0981    0.0000 C.2     1  UNL1       -0.0839
     40 C           8.4381    3.0424    0.0000 C.3     1  UNL1       -0.0556
     41 C          11.1560    3.5248    0.0000 C.3     1  UNL1       -0.0047
     42 C          10.2185    1.9010    0.0000 C.3     1  UNL1       -0.0254
     43 C          11.1602    2.4399    0.0000 C.3     1  UNL1        0.0655
     44 C           3.7220    8.1952    0.0000 C.3     1  UNL1       -0.0435
     45 C           2.9148    7.6050    0.0000 C.3     1  UNL1       -0.0201
     46 C           3.0223    6.6108    0.0000 C.3     1  UNL1        0.0535
     47 C           2.0000    8.0090    0.0000 C.3     1  UNL1       -0.0603
     48 C          12.0262    0.9399    0.0000 C.3     1  UNL1        0.1882
     49 C          12.8922    0.4399    0.0000 C.3     1  UNL1        0.1341
     50 C          12.8922   -0.5601    0.0000 C.3     1  UNL1        0.1141
     51 C          11.1602   -0.5601    0.0000 C.3     1  UNL1        0.1134
     52 C          12.0262   -1.0601    0.0000 C.3     1  UNL1        0.1119
     53 C          10.2942   -1.0601    0.0000 C.3     1  UNL1        0.0796
     54 C           9.4281   -2.5601    0.0000 C.3     1  UNL1        0.1884
     55 C           9.4281   -3.5601    0.0000 C.3     1  UNL1        0.1431
     56 C           8.5621   -4.0601    0.0000 C.3     1  UNL1        0.1144
     57 C           7.6961   -2.5601    0.0000 C.3     1  UNL1        0.0873
     58 C           7.6961   -3.5601    0.0000 C.3     1  UNL1        0.1095
     59 C          10.2942   -5.0601    0.0000 C.3     1  UNL1        0.2909
     60 C           6.8300   -2.0601    0.0000 C.3     1  UNL1       -0.0361
     61 C          10.7942   -5.9262    0.0000 C.3     1  UNL1        0.0579
     62 C          10.2942   -6.7922    0.0000 C.3     1  UNL1        0.0908
     63 C           8.7942   -5.9262    0.0000 C.3     1  UNL1        0.0897
     64 C           9.2942   -6.7922    0.0000 C.3     1  UNL1        0.1072
     65 C          12.0262   -5.0601    0.0000 C.3     1  UNL1        0.1932
     66 C          12.8922   -4.5601    0.0000 C.3     1  UNL1        0.1343
     67 C           7.7942   -5.9262    0.0000 C.3     1  UNL1       -0.0360
     68 C          13.7583   -5.0601    0.0000 C.3     1  UNL1        0.1140
     69 C          13.7583   -6.0601    0.0000 C.3     1  UNL1        0.1095
     70 C          12.8922   -6.5601    0.0000 C.3     1  UNL1        0.0873
     71 C          12.8922   -7.5601    0.0000 C.3     1  UNL1       -0.0361
     72 H           8.0380    5.9340    0.0000 H       1  UNL1        0.0310
     73 H           5.6829    5.1613    0.0000 H       1  UNL1        0.0335
     74 H           8.3991    5.6903    0.0000 H       1  UNL1        0.0310
     75 H           6.5855    7.2049    0.0000 H       1  UNL1        0.0600
     76 H           8.9482    4.3783    0.0000 H       1  UNL1        0.0312
     77 H           7.9415    6.6064    0.0000 H       1  UNL1        0.0293
     78 H           7.3220    7.1580    0.0000 H       1  UNL1        0.0293
     79 H           6.0670    4.1690    0.0000 H       1  UNL1        0.0271
     80 H           6.4682    3.4802    0.0000 H       1  UNL1        0.0271
     81 H           4.3526    5.9902    0.0000 H       1  UNL1        0.0354
     82 H           7.1493    3.0905    0.0000 H       1  UNL1        0.0268
     83 H           7.9463    3.0936    0.0000 H       1  UNL1        0.0268
     84 H           5.4980    5.0960    0.0000 H       1  UNL1        0.0235
     85 H           5.2744    4.2482    0.0000 H       1  UNL1        0.0235
     86 H           6.1222    4.0246    0.0000 H       1  UNL1        0.0235
     87 H           9.6899    6.0890    0.0000 H       1  UNL1        0.0310
     88 H           8.8917    6.0766    0.0000 H       1  UNL1        0.0310
     89 H           8.6765    2.5722    0.0000 H       1  UNL1        0.0274
     90 H           9.0649    1.8748    0.0000 H       1  UNL1        0.0274
     91 H           3.8223    5.5011    0.0000 H       1  UNL1        0.0234
     92 H           3.8693    4.6255    0.0000 H       1  UNL1        0.0234
     93 H           4.7449    4.6725    0.0000 H       1  UNL1        0.0234
     94 H           5.2554    7.7498    0.0000 H       1  UNL1        0.0317
     95 H           4.7850    8.3932    0.0000 H       1  UNL1        0.0317
     96 H          10.7407    5.4122    0.0000 H       1  UNL1        0.0572
     97 H           8.1302    3.5806    0.0000 H       1  UNL1        0.0238
     98 H           7.9000    2.7345    0.0000 H       1  UNL1        0.0238
     99 H           8.7460    2.5043    0.0000 H       1  UNL1        0.0238
    100 H          11.7673    3.4211    0.0000 H       1  UNL1        0.0335
    101 H          11.3628    4.1093    0.0000 H       1  UNL1        0.0335
    102 H           9.8157    1.4296    0.0000 H       1  UNL1        0.0290
    103 H          10.6139    1.4235    0.0000 H       1  UNL1        0.0290
    104 H          11.1590    1.8199    0.0000 H       1  UNL1        0.0600
    105 H           4.0672    8.7102    0.0000 H       1  UNL1        0.0270
    106 H           3.2747    8.6245    0.0000 H       1  UNL1        0.0270
    107 H           2.4143    7.2390    0.0000 H       1  UNL1        0.0320
    108 H           2.4036    6.6522    0.0000 H       1  UNL1        0.0563
    109 H           2.8741    6.0087    0.0000 H       1  UNL1        0.0563
    110 H           2.2505    8.5761    0.0000 H       1  UNL1        0.0233
    111 H           1.4328    8.2594    0.0000 H       1  UNL1        0.0233
    112 H           1.7495    7.4418    0.0000 H       1  UNL1        0.0233
    113 H          12.5631    1.2499    0.0000 H       1  UNL1        0.0937
    114 H          13.4292    0.1299    0.0000 H       1  UNL1        0.0671
    115 H          13.4292   -0.2501    0.0000 H       1  UNL1        0.0648
    116 H          10.6232   -0.2501    0.0000 H       1  UNL1        0.0647
    117 H          12.5631   -1.3701    0.0000 H       1  UNL1        0.0647
    118 H          13.7583    1.5599    0.0000 H       1  UNL1        0.2101
    119 H          10.0821   -0.4775    0.0000 H       1  UNL1        0.0587
    120 H           9.6836   -1.1678    0.0000 H       1  UNL1        0.0587
    121 H          14.2952   -0.7501    0.0000 H       1  UNL1        0.2100
    122 H          12.5631   -2.3701    0.0000 H       1  UNL1        0.2100
    123 H           9.4281   -1.9401    0.0000 H       1  UNL1        0.0938
    124 H           9.4281   -4.1801    0.0000 H       1  UNL1        0.0676
    125 H           8.0252   -4.3701    0.0000 H       1  UNL1        0.0648
    126 H           7.6961   -1.9401    0.0000 H       1  UNL1        0.0621
    127 H           7.6961   -4.1801    0.0000 H       1  UNL1        0.0646
    128 H           7.1400   -1.5232    0.0000 H       1  UNL1        0.0255
    129 H           6.2931   -1.7501    0.0000 H       1  UNL1        0.0255
    130 H           6.5200   -2.5971    0.0000 H       1  UNL1        0.0255
    131 H           8.0252   -5.3701    0.0000 H       1  UNL1        0.2100
    132 H          11.2691   -6.3247    0.0000 H       1  UNL1        0.0369
    133 H          11.2691   -5.5276    0.0000 H       1  UNL1        0.0369
    134 H           6.2931   -3.7501    0.0000 H       1  UNL1        0.2100
    135 H          10.9142   -6.7922    0.0000 H       1  UNL1        0.0622
    136 H           8.4842   -5.3892    0.0000 H       1  UNL1        0.0622
    137 H           8.6741   -6.7922    0.0000 H       1  UNL1        0.0645
    138 H          12.0262   -4.4401    0.0000 H       1  UNL1        0.0939
    139 H          13.4292   -4.2501    0.0000 H       1  UNL1        0.0671
    140 H           7.7942   -5.3062    0.0000 H       1  UNL1        0.0255
    141 H           7.1742   -5.9262    0.0000 H       1  UNL1        0.0255
    142 H           7.7942   -6.5462    0.0000 H       1  UNL1        0.0255
    143 H          13.7583   -4.4401    0.0000 H       1  UNL1        0.0648
    144 H          14.2952   -5.7501    0.0000 H       1  UNL1        0.0646
    145 H          12.3553   -6.8701    0.0000 H       1  UNL1        0.0621
    146 H          10.4842   -8.1952    0.0000 H       1  UNL1        0.2099
    147 H           9.1042   -8.1952    0.0000 H       1  UNL1        0.2100
    148 H          12.2722   -7.5601    0.0000 H       1  UNL1        0.0255
    149 H          12.8922   -8.1801    0.0000 H       1  UNL1        0.0255
    150 H          13.5122   -7.5601    0.0000 H       1  UNL1        0.0255
    151 H          13.4292   -3.2501    0.0000 H       1  UNL1        0.2101
    152 H          15.1612   -4.8701    0.0000 H       1  UNL1        0.2100
    153 H          14.6243   -7.1801    0.0000 H       1  UNL1        0.2100
@<TRIPOS>BOND
     1     1    25    1
     2     1    32    1
     3     2    32    1
     4     2    46    1
     5     3    43    1
     6     3    48    1
     7     4    48    1
     8     4    51    1
     9     5    49    1
    10     5   118    1
    11     6    50    1
    12     6   121    1
    13     7    52    1
    14     7   122    1
    15     8    53    1
    16     8    54    1
    17     9    54    1
    18     9    57    1
    19    10    55    1
    20    10    59    1
    21    11    56    1
    22    11   131    1
    23    12    58    1
    24    12   134    1
    25    13    59    1
    26    13    63    1
    27    14    59    1
    28    14    65    1
    29    15    65    1
    30    15    70    1
    31    16    62    1
    32    16   146    1
    33    17    64    1
    34    17   147    1
    35    18    66    1
    36    18   151    1
    37    19    68    1
    38    19   152    1
    39    20    69    1
    40    20   153    1
    41    21    22    1
    42    21    23    1
    43    21    28    1
    44    21    33    1
    45    22    24    1
    46    22    27    1
    47    22    72    1
    48    23    25    1
    49    23    29    1
    50    23    73    1
    51    24    26    1
    52    24    34    1
    53    24    74    1
    54    25    27    1
    55    25    75    1
    56    26    30    1
    57    26    31    1
    58    26    76    1
    59    27    77    1
    60    27    78    1
    61    28    30    1
    62    28    79    1
    63    28    80    1
    64    29    32    1
    65    29    37    1
    66    29    81    1
    67    30    82    1
    68    30    83    1
    69    31    35    1
    70    31    36    1
    71    31    40    1
    72    32    38    1
    73    33    84    1
    74    33    85    1
    75    33    86    1
    76    34    39    1
    77    34    87    1
    78    34    88    1
    79    35    39    2
    80    35    41    1
    81    36    42    1
    82    36    89    1
    83    36    90    1
    84    37    91    1
    85    37    92    1
    86    37    93    1
    87    38    44    1
    88    38    94    1
    89    38    95    1
    90    39    96    1
    91    40    97    1
    92    40    98    1
    93    40    99    1
    94    41    43    1
    95    41   100    1
    96    41   101    1
    97    42    43    1
    98    42   102    1
    99    42   103    1
   100    43   104    1
   101    44    45    1
   102    44   105    1
   103    44   106    1
   104    45    46    1
   105    45    47    1
   106    45   107    1
   107    46   108    1
   108    46   109    1
   109    47   110    1
   110    47   111    1
   111    47   112    1
   112    48    49    1
   113    48   113    1
   114    49    50    1
   115    49   114    1
   116    50    52    1
   117    50   115    1
   118    51    52    1
   119    51    53    1
   120    51   116    1
   121    52   117    1
   122    53   119    1
   123    53   120    1
   124    54    55    1
   125    54   123    1
   126    55    56    1
   127    55   124    1
   128    56    58    1
   129    56   125    1
   130    57    58    1
   131    57    60    1
   132    57   126    1
   133    58   127    1
   134    59    61    1
   135    60   128    1
   136    60   129    1
   137    60   130    1
   138    61    62    1
   139    61   132    1
   140    61   133    1
   141    62    64    1
   142    62   135    1
   143    63    64    1
   144    63    67    1
   145    63   136    1
   146    64   137    1
   147    65    66    1
   148    65   138    1
   149    66    68    1
   150    66   139    1
   151    67   140    1
   152    67   141    1
   153    67   142    1
   154    68    69    1
   155    68   143    1
   156    69    70    1
   157    69   144    1
   158    70    71    1
   159    70   145    1
   160    71   148    1
   161    71   149    1
   162    71   150    1
