@<TRIPOS>MOLECULE
IMPHY017116
 39 40 0 0 0
SMALL
GASTEIGER

@<TRIPOS>ATOM
      1 C           2.8660    0.2756    0.0000 C.3     1  UNL1       -0.0069
      2 C           4.3606    1.2462    0.0000 C.3     1  UNL1       -0.0131
      3 C           3.3660    1.1417    0.0000 C.2     1  UNL1       -0.0616
      4 C           4.5685    2.2244    0.0000 C.3     1  UNL1       -0.0407
      5 C           2.0000   -0.2244    0.0000 C.3     1  UNL1       -0.0399
      6 C           3.7320   -0.2244    0.0000 C.3     1  UNL1       -0.0254
      7 C           3.7024    2.7244    0.0000 C.3     1  UNL1       -0.0337
      8 C           2.9593    2.0552    0.0000 C.2     1  UNL1       -0.0837
      9 C           2.3660    1.1417    0.0000 C.3     1  UNL1       -0.0555
     10 C           2.0000   -1.2244    0.0000 C.3     1  UNL1       -0.0312
     11 C           5.3387    1.0383    0.0000 C.3     1  UNL1       -0.0561
     12 C           4.4651    0.2517    0.0000 C.3     1  UNL1       -0.0561
     13 C           3.7320   -1.2244    0.0000 C.2     1  UNL1       -0.0842
     14 C           2.8660   -1.7244    0.0000 C.2     1  UNL1       -0.0765
     15 C           2.8660   -2.7244    0.0000 C.3     1  UNL1       -0.0438
     16 H           5.1581    2.0328    0.0000 H       1  UNL1        0.0276
     17 H           4.8206    2.7908    0.0000 H       1  UNL1        0.0276
     18 H           1.7880    0.3583    0.0000 H       1  UNL1        0.0277
     19 H           1.3894   -0.3320    0.0000 H       1  UNL1        0.0277
     20 H           4.3426   -0.3320    0.0000 H       1  UNL1        0.0316
     21 H           3.9441    0.3583    0.0000 H       1  UNL1        0.0316
     22 H           4.0669    3.2259    0.0000 H       1  UNL1        0.0308
     23 H           3.2417    3.1392    0.0000 H       1  UNL1        0.0308
     24 H           2.3528    2.1841    0.0000 H       1  UNL1        0.0572
     25 H           2.9030    1.4517    0.0000 H       1  UNL1        0.0238
     26 H           2.0560    1.6786    0.0000 H       1  UNL1        0.0238
     27 H           1.8291    0.8317    0.0000 H       1  UNL1        0.0238
     28 H           1.3894   -1.1167    0.0000 H       1  UNL1        0.0310
     29 H           1.7880   -1.8070    0.0000 H       1  UNL1        0.0310
     30 H           5.2098    0.4318    0.0000 H       1  UNL1        0.0238
     31 H           5.9452    0.9094    0.0000 H       1  UNL1        0.0238
     32 H           5.4676    1.6447    0.0000 H       1  UNL1        0.0238
     33 H           3.8485    0.1869    0.0000 H       1  UNL1        0.0238
     34 H           4.5299   -0.3649    0.0000 H       1  UNL1        0.0238
     35 H           5.0817    0.3165    0.0000 H       1  UNL1        0.0238
     36 H           4.2690   -1.5344    0.0000 H       1  UNL1        0.0572
     37 H           2.2460   -2.7244    0.0000 H       1  UNL1        0.0274
     38 H           2.8660   -3.3444    0.0000 H       1  UNL1        0.0274
     39 H           3.4860   -2.7244    0.0000 H       1  UNL1        0.0274
@<TRIPOS>BOND
     1     1     3    1
     2     1     5    1
     3     1     6    1
     4     1     9    1
     5     2     3    1
     6     2     4    1
     7     2    11    1
     8     2    12    1
     9     3     8    2
    10     4     7    1
    11     4    16    1
    12     4    17    1
    13     5    10    1
    14     5    18    1
    15     5    19    1
    16     6    13    1
    17     6    20    1
    18     6    21    1
    19     7     8    1
    20     7    22    1
    21     7    23    1
    22     8    24    1
    23     9    25    1
    24     9    26    1
    25     9    27    1
    26    10    14    1
    27    10    28    1
    28    10    29    1
    29    11    30    1
    30    11    31    1
    31    11    32    1
    32    12    33    1
    33    12    34    1
    34    12    35    1
    35    13    14    2
    36    13    36    1
    37    14    15    1
    38    15    37    1
    39    15    38    1
    40    15    39    1
