@<TRIPOS>MOLECULE
IMPHY002940
 50 52 0 0 0
SMALL
GASTEIGER

@<TRIPOS>ATOM
      1 O           8.2065   -1.2024    0.0000 O.3     1  UNL1       -0.4842
      2 O          10.7901   -0.3977    0.0000 O.3     1  UNL1       -0.4551
      3 O           4.6342   -1.4324    0.0000 O.2     1  UNL1       -0.4218
      4 O           2.8641   -1.4219    0.0000 O.2     1  UNL1       -0.2449
      5 O          10.7901   -2.1298    0.0000 O.2     1  UNL1       -0.2511
      6 C           8.7901   -0.3977    0.0000 C.3     1  UNL1        0.1432
      7 C           9.7901   -0.3977    0.0000 C.3     1  UNL1        0.1447
      8 C           8.2065    0.4070    0.0000 C.3     1  UNL1        0.0168
      9 C           7.2602    0.1023    0.0000 C.ar    1  UNL1       -0.0013
     10 C           7.2602   -0.8977    0.0000 C.ar    1  UNL1        0.1279
     11 C           9.7901   -1.3977    0.0000 C.3     1  UNL1       -0.0215
     12 C           9.7901    0.6023    0.0000 C.3     1  UNL1       -0.0215
     13 C           6.3942    0.6023    0.0000 C.ar    1  UNL1       -0.0443
     14 C           5.5282    0.1023    0.0000 C.ar    1  UNL1        0.0184
     15 C           6.3942   -1.3977    0.0000 C.ar    1  UNL1        0.0234
     16 C           5.5282   -0.8977    0.0000 C.ar    1  UNL1        0.1426
     17 C           2.8641    0.6264    0.0000 C.3     1  UNL1        0.0146
     18 C           3.7282    0.1231    0.0000 C.ar    1  UNL1        0.0470
     19 C           4.6342    0.6369    0.0000 C.ar    1  UNL1       -0.0403
     20 C           3.7282   -0.9185    0.0000 C.ar    1  UNL1        0.3413
     21 C           3.3674    1.4905    0.0000 C.3     1  UNL1       -0.0521
     22 C           2.3608   -0.2377    0.0000 C.3     1  UNL1       -0.0521
     23 C          11.2901   -1.2637    0.0000 C.2     1  UNL1        0.3046
     24 C           2.0000    1.1298    0.0000 C.2     1  UNL1       -0.0809
     25 C          12.2901   -1.2637    0.0000 C.3     1  UNL1        0.0333
     26 C           2.0038    2.1298    0.0000 C.2     1  UNL1       -0.1018
     27 H           9.1763   -1.1549    0.0000 H       1  UNL1        0.0776
     28 H           8.7438    0.7162    0.0000 H       1  UNL1        0.0351
     29 H           7.9554    0.9739    0.0000 H       1  UNL1        0.0351
     30 H           9.1701   -1.3977    0.0000 H       1  UNL1        0.0269
     31 H           9.7901   -2.0177    0.0000 H       1  UNL1        0.0269
     32 H          10.4101   -1.3977    0.0000 H       1  UNL1        0.0269
     33 H          10.4101    0.6023    0.0000 H       1  UNL1        0.0269
     34 H           9.7901    1.2223    0.0000 H       1  UNL1        0.0269
     35 H           9.1701    0.6023    0.0000 H       1  UNL1        0.0269
     36 H           6.3942    1.2223    0.0000 H       1  UNL1        0.0628
     37 H           6.3942   -2.0177    0.0000 H       1  UNL1        0.0691
     38 H           4.6414    1.2569    0.0000 H       1  UNL1        0.0630
     39 H           1.8250    0.0744    0.0000 H       1  UNL1        0.0241
     40 H           2.0487   -0.7734    0.0000 H       1  UNL1        0.0241
     41 H           2.8965   -0.5497    0.0000 H       1  UNL1        0.0241
     42 H           3.9032    1.1785    0.0000 H       1  UNL1        0.0241
     43 H           3.6795    2.0263    0.0000 H       1  UNL1        0.0241
     44 H           2.8317    1.8026    0.0000 H       1  UNL1        0.0241
     45 H           1.4619    0.8218    0.0000 H       1  UNL1        0.0575
     46 H          12.2901   -1.8837    0.0000 H       1  UNL1        0.0342
     47 H          12.9101   -1.2637    0.0000 H       1  UNL1        0.0342
     48 H          12.2901   -0.6437    0.0000 H       1  UNL1        0.0342
     49 H           2.5420    2.4377    0.0000 H       1  UNL1        0.0532
     50 H           1.4681    2.4418    0.0000 H       1  UNL1        0.0532
@<TRIPOS>BOND
     1     1     6    1
     2     1    10    1
     3     2     7    1
     4     2    23    1
     5     3    16   ar
     6     3    20   ar
     7     4    20    2
     8     5    23    2
     9     6     7    1
    10     6     8    1
    11     6    27    1
    12     7    11    1
    13     7    12    1
    14     8     9    1
    15     8    28    1
    16     8    29    1
    17     9    10   ar
    18     9    13   ar
    19    10    15   ar
    20    11    30    1
    21    11    31    1
    22    11    32    1
    23    12    33    1
    24    12    34    1
    25    12    35    1
    26    13    14   ar
    27    13    36    1
    28    14    16   ar
    29    14    19   ar
    30    15    16   ar
    31    15    37    1
    32    17    18    1
    33    17    21    1
    34    17    22    1
    35    17    24    1
    36    18    19   ar
    37    18    20   ar
    38    19    38    1
    39    21    42    1
    40    21    43    1
    41    21    44    1
    42    22    39    1
    43    22    40    1
    44    22    41    1
    45    23    25    1
    46    24    26    2
    47    24    45    1
    48    25    46    1
    49    25    47    1
    50    25    48    1
    51    26    49    1
    52    26    50    1
