@<TRIPOS>MOLECULE
IMPHY012141
 19 19 0 0 0
SMALL
GASTEIGER

@<TRIPOS>ATOM
      1 O           3.7601   -0.7694    0.0000 O.3     1  UNL1       -0.3739
      2 C           4.2601    0.7694    0.0000 C.3     1  UNL1       -0.0245
      3 C           3.2601    0.7694    0.0000 C.3     1  UNL1       -0.0245
      4 C           4.5691   -0.1816    0.0000 C.3     1  UNL1        0.0563
      5 C           2.9511   -0.1816    0.0000 C.3     1  UNL1        0.0563
      6 C           5.5202   -0.4907    0.0000 C.3     1  UNL1       -0.0387
      7 C           2.0000   -0.4907    0.0000 C.3     1  UNL1       -0.0387
      8 H           4.8665    0.8983    0.0000 H       1  UNL1        0.0291
      9 H           4.1953    1.3860    0.0000 H       1  UNL1        0.0291
     10 H           3.3249    1.3860    0.0000 H       1  UNL1        0.0291
     11 H           2.6536    0.8983    0.0000 H       1  UNL1        0.0291
     12 H           4.6661   -0.7940    0.0000 H       1  UNL1        0.0593
     13 H           2.8541   -0.7940    0.0000 H       1  UNL1        0.0593
     14 H           5.3286   -1.0803    0.0000 H       1  UNL1        0.0254
     15 H           6.1098   -0.6822    0.0000 H       1  UNL1        0.0254
     16 H           5.7117    0.0990    0.0000 H       1  UNL1        0.0254
     17 H           1.8084    0.0990    0.0000 H       1  UNL1        0.0254
     18 H           1.4103   -0.6822    0.0000 H       1  UNL1        0.0254
     19 H           2.1916   -1.0803    0.0000 H       1  UNL1        0.0254
@<TRIPOS>BOND
     1     1     4    1
     2     1     5    1
     3     2     3    1
     4     2     4    1
     5     2     8    1
     6     2     9    1
     7     3     5    1
     8     3    10    1
     9     3    11    1
    10     4     6    1
    11     4    12    1
    12     5     7    1
    13     5    13    1
    14     6    14    1
    15     6    15    1
    16     6    16    1
    17     7    17    1
    18     7    18    1
    19     7    19    1
