@<TRIPOS>MOLECULE
IMPHY007275
 42 42 0 0 0
SMALL
GASTEIGER

@<TRIPOS>ATOM
      1 O           5.4641   -1.9400    0.0000 O.3     1  UNL1       -0.3875
      2 C           4.5981   -0.4400    0.0000 C.3     1  UNL1       -0.0056
      3 C           4.2561    0.4997    0.0000 C.3     1  UNL1       -0.0410
      4 C           4.5981   -1.4400    0.0000 C.3     1  UNL1        0.0769
      5 C           5.4641    0.0600    0.0000 C.3     1  UNL1       -0.0288
      6 C           3.7320   -1.9400    0.0000 C.2     1  UNL1       -0.0566
      7 C           5.1370    1.2389    0.0000 C.3     1  UNL1       -0.0623
      8 C           3.2713    0.6734    0.0000 C.3     1  UNL1       -0.0623
      9 C           5.4641    1.0600    0.0000 C.2     1  UNL1       -0.0847
     10 C           2.8660   -1.4400    0.0000 C.2     1  UNL1       -0.0741
     11 C           2.8660   -0.4400    0.0000 C.3     1  UNL1       -0.0316
     12 C           3.7320    0.0600    0.0000 C.3     1  UNL1       -0.0457
     13 C           3.7320    1.0600    0.0000 C.3     1  UNL1       -0.0317
     14 C           4.5981    1.5600    0.0000 C.2     1  UNL1       -0.0765
     15 C           2.0000   -1.9400    0.0000 C.3     1  UNL1       -0.0437
     16 C           4.5981    2.5600    0.0000 C.3     1  UNL1       -0.0438
     17 H           4.8101    0.1426    0.0000 H       1  UNL1        0.0334
     18 H           4.0956    1.0986    0.0000 H       1  UNL1        0.0299
     19 H           4.5981   -2.0600    0.0000 H       1  UNL1        0.0640
     20 H           5.6762   -0.5226    0.0000 H       1  UNL1        0.0311
     21 H           6.0747    0.1677    0.0000 H       1  UNL1        0.0311
     22 H           3.7320   -2.5600    0.0000 H       1  UNL1        0.0597
     23 H           3.3790    1.2840    0.0000 H       1  UNL1        0.0232
     24 H           2.6607    0.7811    0.0000 H       1  UNL1        0.0232
     25 H           3.1636    0.0628    0.0000 H       1  UNL1        0.0232
     26 H           5.5355    0.7640    0.0000 H       1  UNL1        0.0232
     27 H           5.6120    1.6374    0.0000 H       1  UNL1        0.0232
     28 H           4.7385    1.7138    0.0000 H       1  UNL1        0.0232
     29 H           6.0010    1.3700    0.0000 H       1  UNL1        0.0572
     30 H           2.6540    0.1426    0.0000 H       1  UNL1        0.0310
     31 H           2.2554   -0.5477    0.0000 H       1  UNL1        0.0310
     32 H           3.9441   -0.5226    0.0000 H       1  UNL1        0.0271
     33 H           4.3426    0.1677    0.0000 H       1  UNL1        0.0271
     34 H           3.5200    1.6426    0.0000 H       1  UNL1        0.0310
     35 H           3.1215    0.9523    0.0000 H       1  UNL1        0.0310
     36 H           5.4641   -2.5600    0.0000 H       1  UNL1        0.2102
     37 H           1.6900   -1.4031    0.0000 H       1  UNL1        0.0274
     38 H           1.4631   -2.2500    0.0000 H       1  UNL1        0.0274
     39 H           2.3100   -2.4769    0.0000 H       1  UNL1        0.0274
     40 H           5.2181    2.5600    0.0000 H       1  UNL1        0.0274
     41 H           4.5981    3.1800    0.0000 H       1  UNL1        0.0274
     42 H           3.9781    2.5600    0.0000 H       1  UNL1        0.0274
@<TRIPOS>BOND
     1     1     4    1
     2     1    36    1
     3     2     3    1
     4     2     4    1
     5     2     5    1
     6     2    17    1
     7     3     7    1
     8     3     8    1
     9     3    18    1
    10     4     6    1
    11     4    19    1
    12     5     9    1
    13     5    20    1
    14     5    21    1
    15     6    10    2
    16     6    22    1
    17     7    26    1
    18     7    27    1
    19     7    28    1
    20     8    23    1
    21     8    24    1
    22     8    25    1
    23     9    14    2
    24     9    29    1
    25    10    11    1
    26    10    15    1
    27    11    12    1
    28    11    30    1
    29    11    31    1
    30    12    13    1
    31    12    32    1
    32    12    33    1
    33    13    14    1
    34    13    34    1
    35    13    35    1
    36    14    16    1
    37    15    37    1
    38    15    38    1
    39    15    39    1
    40    16    40    1
    41    16    41    1
    42    16    42    1
