@<TRIPOS>MOLECULE
IMPHY013238
 139 146 0 0 0
SMALL
GASTEIGER

@<TRIPOS>ATOM
      1 O           7.5844    0.5867    0.0000 O.3     1  UNL1       -0.3906
      2 O          10.4601    7.6324    0.0000 O.3     1  UNL1       -0.3912
      3 O           8.5991   -1.6262    0.0000 O.3     1  UNL1       -0.4306
      4 O           7.6143   -0.7998    0.0000 O.2     1  UNL1       -0.2500
      5 O           6.8671   -1.6262    0.0000 O.3     1  UNL1       -0.3360
      6 O           8.5991   -3.6262    0.0000 O.3     1  UNL1       -0.4523
      7 O           6.8671   -4.6262    0.0000 O.3     1  UNL1       -0.3389
      8 O           5.1350   -3.6262    0.0000 O.3     1  UNL1       -0.3868
      9 O           5.1350   -4.6262    0.0000 O.3     1  UNL1       -0.3405
     10 O           9.4651   -2.1262    0.0000 O.2     1  UNL1       -0.2508
     11 O           6.8671   -6.6262    0.0000 O.3     1  UNL1       -0.3841
     12 O           5.1350   -7.6262    0.0000 O.3     1  UNL1       -0.3864
     13 O           3.4030   -6.6262    0.0000 O.3     1  UNL1       -0.3865
     14 O           2.5369   -5.1262    0.0000 O.3     1  UNL1       -0.3924
     15 O          13.7953   -6.6262    0.0000 O.3     1  UNL1       -0.5068
     16 C           9.5048    2.9429    0.0000 C.3     1  UNL1       -0.0193
     17 C          10.3746    3.4362    0.0000 C.3     1  UNL1       -0.0257
     18 C          10.3987    4.4776    0.0000 C.3     1  UNL1       -0.0250
     19 C           9.4970    1.9429    0.0000 C.3     1  UNL1       -0.0028
     20 C           9.5048    5.0122    0.0000 C.3     1  UNL1       -0.0278
     21 C           8.5987    3.4567    0.0000 C.3     1  UNL1       -0.0463
     22 C          10.3592    1.4363    0.0000 C.2     1  UNL1       -0.0627
     23 C           8.5987    4.4984    0.0000 C.3     1  UNL1       -0.0486
     24 C           9.5048    6.0972    0.0000 C.3     1  UNL1       -0.0056
     25 C          10.3672    0.3947    0.0000 C.3     1  UNL1       -0.0007
     26 C          11.2368    2.9295    0.0000 C.3     1  UNL1       -0.0306
     27 C           8.5832    1.4431    0.0000 C.3     1  UNL1       -0.0162
     28 C          11.3546    4.9908    0.0000 C.3     1  UNL1       -0.0447
     29 C           9.4651   -0.1262    0.0000 C.3     1  UNL1        0.1000
     30 C           8.5671    0.4016    0.0000 C.3     1  UNL1        0.0723
     31 C           8.5186    2.7769    0.0000 C.3     1  UNL1       -0.0585
     32 C          10.4485    6.6324    0.0000 C.3     1  UNL1        0.0606
     33 C          11.2290    1.9296    0.0000 C.2     1  UNL1       -0.0836
     34 C          11.2569    3.9643    0.0000 C.3     1  UNL1       -0.0590
     35 C          11.3797    6.0755    0.0000 C.3     1  UNL1       -0.0258
     36 C           8.5136    2.1242    0.0000 C.3     1  UNL1       -0.0552
     37 C          11.3151   -0.1333    0.0000 C.3     1  UNL1       -0.0402
     38 C           9.4484   -1.2110    0.0000 C.3     1  UNL1       -0.0338
     39 C          11.3235   -1.2182    0.0000 C.3     1  UNL1       -0.0343
     40 C           9.0081    6.9652    0.0000 C.3     1  UNL1       -0.0572
     41 C           8.5048    6.1011    0.0000 C.3     1  UNL1       -0.0572
     42 C          10.3838   -1.7607    0.0000 C.3     1  UNL1       -0.0467
     43 C           8.5991   -0.6262    0.0000 C.2     1  UNL1        0.3187
     44 C          12.3235   -1.2144    0.0000 C.3     1  UNL1       -0.0598
     45 C          11.8268   -2.0823    0.0000 C.3     1  UNL1       -0.0598
     46 C           7.7331   -2.1262    0.0000 C.3     1  UNL1        0.2447
     47 C           7.7331   -3.1262    0.0000 C.3     1  UNL1        0.1933
     48 C           6.8671   -3.6262    0.0000 C.3     1  UNL1        0.1324
     49 C           6.0010   -2.1262    0.0000 C.3     1  UNL1        0.0803
     50 C           6.0010   -3.1262    0.0000 C.3     1  UNL1        0.1084
     51 C           9.4651   -3.1262    0.0000 C.2     1  UNL1        0.3079
     52 C           6.0010   -5.1262    0.0000 C.3     1  UNL1        0.1885
     53 C           6.0010   -6.1262    0.0000 C.3     1  UNL1        0.1341
     54 C          10.3312   -3.6262    0.0000 C.3     1  UNL1        0.0489
     55 C           5.1350   -6.6262    0.0000 C.3     1  UNL1        0.1141
     56 C           4.2690   -5.1262    0.0000 C.3     1  UNL1        0.1130
     57 C           4.2690   -6.1262    0.0000 C.3     1  UNL1        0.1119
     58 C          10.3312   -4.6262    0.0000 C.3     1  UNL1       -0.0176
     59 C           3.4030   -4.6262    0.0000 C.3     1  UNL1        0.0730
     60 C          11.1972   -5.1262    0.0000 C.ar    1  UNL1       -0.0466
     61 C          12.0632   -4.6262    0.0000 C.ar    1  UNL1       -0.0551
     62 C          11.1972   -6.1262    0.0000 C.ar    1  UNL1       -0.0551
     63 C          12.9292   -5.1262    0.0000 C.ar    1  UNL1       -0.0199
     64 C          12.0632   -6.6262    0.0000 C.ar    1  UNL1       -0.0199
     65 C          12.9292   -6.1262    0.0000 C.ar    1  UNL1        0.1169
     66 H          10.9163    3.7379    0.0000 H       1  UNL1        0.0315
     67 H           8.9690    5.3243    0.0000 H       1  UNL1        0.0312
     68 H           7.9878    3.5628    0.0000 H       1  UNL1        0.0271
     69 H           8.3896    2.8730    0.0000 H       1  UNL1        0.0271
     70 H           8.3896    5.0821    0.0000 H       1  UNL1        0.0268
     71 H           7.9878    4.3923    0.0000 H       1  UNL1        0.0268
     72 H          10.9005    0.7109    0.0000 H       1  UNL1        0.0357
     73 H          11.8465    2.8172    0.0000 H       1  UNL1        0.0310
     74 H          11.4533    3.5105    0.0000 H       1  UNL1        0.0310
     75 H           8.3831    2.0300    0.0000 H       1  UNL1        0.0299
     76 H           7.9707    1.3464    0.0000 H       1  UNL1        0.0299
     77 H          11.5501    4.4024    0.0000 H       1  UNL1        0.0271
     78 H          11.9678    5.0828    0.0000 H       1  UNL1        0.0271
     79 H           8.3494   -0.1789    0.0000 H       1  UNL1        0.0605
     80 H           8.4157    3.3883    0.0000 H       1  UNL1        0.0235
     81 H           7.9072    2.6740    0.0000 H       1  UNL1        0.0235
     82 H           8.6216    2.1655    0.0000 H       1  UNL1        0.0235
     83 H          10.9896    6.9352    0.0000 H       1  UNL1        0.0599
     84 H          11.7636    1.6154    0.0000 H       1  UNL1        0.0572
     85 H          10.9387    3.4322    0.0000 H       1  UNL1        0.0235
     86 H          11.7890    3.6460    0.0000 H       1  UNL1        0.0235
     87 H          11.5751    4.4964    0.0000 H       1  UNL1        0.0235
     88 H          11.9879    5.9553    0.0000 H       1  UNL1        0.0290
     89 H          11.6022    6.6542    0.0000 H       1  UNL1        0.0290
     90 H           8.6260    2.7339    0.0000 H       1  UNL1        0.0238
     91 H           7.9039    2.2365    0.0000 H       1  UNL1        0.0238
     92 H           8.4012    1.5144    0.0000 H       1  UNL1        0.0238
     93 H          11.9268   -0.2347    0.0000 H       1  UNL1        0.0276
     94 H          11.5197    0.4520    0.0000 H       1  UNL1        0.0276
     95 H           8.8393   -1.0955    0.0000 H       1  UNL1        0.0277
     96 H           9.2304   -1.7914    0.0000 H       1  UNL1        0.0277
     97 H           9.9829   -2.2336    0.0000 H       1  UNL1        0.0271
     98 H          10.7811   -2.2367    0.0000 H       1  UNL1        0.0271
     99 H           9.5462    7.2731    0.0000 H       1  UNL1        0.0236
    100 H           8.7002    7.5033    0.0000 H       1  UNL1        0.0236
    101 H           8.4700    6.6572    0.0000 H       1  UNL1        0.0236
    102 H           8.5072    6.7211    0.0000 H       1  UNL1        0.0236
    103 H           7.8848    6.1035    0.0000 H       1  UNL1        0.0236
    104 H           8.5024    5.4811    0.0000 H       1  UNL1        0.0236
    105 H           7.3791    1.1717    0.0000 H       1  UNL1        0.2098
    106 H          12.3258   -1.8344    0.0000 H       1  UNL1        0.0235
    107 H          12.9435   -1.2120    0.0000 H       1  UNL1        0.0235
    108 H          12.3211   -0.5944    0.0000 H       1  UNL1        0.0235
    109 H          11.2911   -2.3944    0.0000 H       1  UNL1        0.0235
    110 H          12.1389   -2.6181    0.0000 H       1  UNL1        0.0235
    111 H          12.3625   -1.7703    0.0000 H       1  UNL1        0.0235
    112 H          11.0006    7.9362    0.0000 H       1  UNL1        0.2098
    113 H           7.7331   -1.5062    0.0000 H       1  UNL1        0.1097
    114 H           8.2700   -2.8162    0.0000 H       1  UNL1        0.0825
    115 H           7.4040   -3.9362    0.0000 H       1  UNL1        0.0663
    116 H           5.7890   -1.5435    0.0000 H       1  UNL1        0.0588
    117 H           5.3905   -2.2338    0.0000 H       1  UNL1        0.0588
    118 H           6.0010   -3.7462    0.0000 H       1  UNL1        0.0644
    119 H           4.5981   -3.3162    0.0000 H       1  UNL1        0.2100
    120 H           6.0010   -4.5062    0.0000 H       1  UNL1        0.0938
    121 H           6.0010   -6.7462    0.0000 H       1  UNL1        0.0671
    122 H          10.9417   -3.7338    0.0000 H       1  UNL1        0.0381
    123 H          10.5432   -3.0435    0.0000 H       1  UNL1        0.0381
    124 H           4.5981   -6.9362    0.0000 H       1  UNL1        0.0648
    125 H           4.2690   -4.5062    0.0000 H       1  UNL1        0.0647
    126 H           4.2690   -6.7462    0.0000 H       1  UNL1        0.0647
    127 H           9.7206   -4.5185    0.0000 H       1  UNL1        0.0318
    128 H          10.1191   -5.2088    0.0000 H       1  UNL1        0.0318
    129 H           7.4040   -6.3162    0.0000 H       1  UNL1        0.2101
    130 H           3.8015   -4.1512    0.0000 H       1  UNL1        0.0584
    131 H           3.0044   -4.1512    0.0000 H       1  UNL1        0.0584
    132 H           5.6720   -7.9362    0.0000 H       1  UNL1        0.2100
    133 H           3.4030   -7.2462    0.0000 H       1  UNL1        0.2100
    134 H           2.0000   -4.8162    0.0000 H       1  UNL1        0.2095
    135 H          12.0632   -4.0062    0.0000 H       1  UNL1        0.0621
    136 H          10.6603   -6.4361    0.0000 H       1  UNL1        0.0621
    137 H          13.4662   -4.8162    0.0000 H       1  UNL1        0.0654
    138 H          12.0632   -7.2462    0.0000 H       1  UNL1        0.0654
    139 H          13.7953   -7.2462    0.0000 H       1  UNL1        0.2921
@<TRIPOS>BOND
     1     1    30    1
     2     1   105    1
     3     2    32    1
     4     2   112    1
     5     3    43    1
     6     3    46    1
     7     4    43    2
     8     5    46    1
     9     5    49    1
    10     6    47    1
    11     6    51    1
    12     7    48    1
    13     7    52    1
    14     8    50    1
    15     8   119    1
    16     9    52    1
    17     9    56    1
    18    10    51    2
    19    11    53    1
    20    11   129    1
    21    12    55    1
    22    12   132    1
    23    13    57    1
    24    13   133    1
    25    14    59    1
    26    14   134    1
    27    15    65    1
    28    15   139    1
    29    16    17    1
    30    16    19    1
    31    16    21    1
    32    16    31    1
    33    17    18    1
    34    17    26    1
    35    17    66    1
    36    18    20    1
    37    18    28    1
    38    18    34    1
    39    19    22    1
    40    19    27    1
    41    19    36    1
    42    20    23    1
    43    20    24    1
    44    20    67    1
    45    21    23    1
    46    21    68    1
    47    21    69    1
    48    22    25    1
    49    22    33    2
    50    23    70    1
    51    23    71    1
    52    24    32    1
    53    24    40    1
    54    24    41    1
    55    25    29    1
    56    25    37    1
    57    25    72    1
    58    26    33    1
    59    26    73    1
    60    26    74    1
    61    27    30    1
    62    27    75    1
    63    27    76    1
    64    28    35    1
    65    28    77    1
    66    28    78    1
    67    29    30    1
    68    29    38    1
    69    29    43    1
    70    30    79    1
    71    31    80    1
    72    31    81    1
    73    31    82    1
    74    32    35    1
    75    32    83    1
    76    33    84    1
    77    34    85    1
    78    34    86    1
    79    34    87    1
    80    35    88    1
    81    35    89    1
    82    36    90    1
    83    36    91    1
    84    36    92    1
    85    37    39    1
    86    37    93    1
    87    37    94    1
    88    38    42    1
    89    38    95    1
    90    38    96    1
    91    39    42    1
    92    39    44    1
    93    39    45    1
    94    40    99    1
    95    40   100    1
    96    40   101    1
    97    41   102    1
    98    41   103    1
    99    41   104    1
   100    42    97    1
   101    42    98    1
   102    44   106    1
   103    44   107    1
   104    44   108    1
   105    45   109    1
   106    45   110    1
   107    45   111    1
   108    46    47    1
   109    46   113    1
   110    47    48    1
   111    47   114    1
   112    48    50    1
   113    48   115    1
   114    49    50    1
   115    49   116    1
   116    49   117    1
   117    50   118    1
   118    51    54    1
   119    52    53    1
   120    52   120    1
   121    53    55    1
   122    53   121    1
   123    54    58    1
   124    54   122    1
   125    54   123    1
   126    55    57    1
   127    55   124    1
   128    56    57    1
   129    56    59    1
   130    56   125    1
   131    57   126    1
   132    58    60    1
   133    58   127    1
   134    58   128    1
   135    59   130    1
   136    59   131    1
   137    60    61   ar
   138    60    62   ar
   139    61    63   ar
   140    61   135    1
   141    62    64   ar
   142    62   136    1
   143    63    65   ar
   144    63   137    1
   145    64    65   ar
   146    64   138    1
