@<TRIPOS>MOLECULE
IMPHY016860
 56 55 0 0 0
SMALL
GASTEIGER

@<TRIPOS>ATOM
      1 SI          2.8660    0.0670    0.0000 Si      1  UNL1        0.0000
      2 O           3.7320    0.5670    0.0000 O.3     1  UNL1        0.0000
      3 O           4.5981   -0.9330    0.0000 O.2     1  UNL1        0.0000
      4 C           9.7942    0.0670    0.0000 C.3     1  UNL1        0.0000
      5 C          10.6603    0.5670    0.0000 C.3     1  UNL1        0.0000
      6 C           8.9282    0.5670    0.0000 C.3     1  UNL1        0.0000
      7 C          11.5263    0.0670    0.0000 C.3     1  UNL1        0.0000
      8 C           8.0622    0.0670    0.0000 C.3     1  UNL1        0.0000
      9 C          12.3923    0.5670    0.0000 C.3     1  UNL1        0.0000
     10 C           7.1962    0.5670    0.0000 C.3     1  UNL1        0.0000
     11 C          13.2583    0.0670    0.0000 C.3     1  UNL1        0.0000
     12 C           6.3301    0.0670    0.0000 C.3     1  UNL1        0.0000
     13 C          14.1244    0.5670    0.0000 C.3     1  UNL1        0.0000
     14 C           5.4641    0.5670    0.0000 C.3     1  UNL1        0.0000
     15 C          14.9904    0.0670    0.0000 C.3     1  UNL1        0.0000
     16 C           4.5981    0.0670    0.0000 C.2     1  UNL1        0.0000
     17 C          15.8564    0.5670    0.0000 C.3     1  UNL1        0.0000
     18 C           2.0000   -0.4330    0.0000 C.3     1  UNL1        0.0000
     19 C           2.3660    0.9330    0.0000 C.3     1  UNL1        0.0000
     20 C           3.3660   -0.7990    0.0000 C.3     1  UNL1        0.0000
     21 H           9.3957   -0.4080    0.0000 H       1  UNL1        0.0000
     22 H          10.1928   -0.4080    0.0000 H       1  UNL1        0.0000
     23 H          11.0588    1.0419    0.0000 H       1  UNL1        0.0000
     24 H          10.2617    1.0419    0.0000 H       1  UNL1        0.0000
     25 H           9.3267    1.0419    0.0000 H       1  UNL1        0.0000
     26 H           8.5297    1.0419    0.0000 H       1  UNL1        0.0000
     27 H          11.1278   -0.4080    0.0000 H       1  UNL1        0.0000
     28 H          11.9248   -0.4080    0.0000 H       1  UNL1        0.0000
     29 H           7.6636   -0.4080    0.0000 H       1  UNL1        0.0000
     30 H           8.4607   -0.4080    0.0000 H       1  UNL1        0.0000
     31 H          12.7908    1.0419    0.0000 H       1  UNL1        0.0000
     32 H          11.9938    1.0419    0.0000 H       1  UNL1        0.0000
     33 H           7.5947    1.0419    0.0000 H       1  UNL1        0.0000
     34 H           6.7976    1.0419    0.0000 H       1  UNL1        0.0000
     35 H          12.8598   -0.4080    0.0000 H       1  UNL1        0.0000
     36 H          13.6569   -0.4080    0.0000 H       1  UNL1        0.0000
     37 H           5.9316   -0.4080    0.0000 H       1  UNL1        0.0000
     38 H           6.7287   -0.4080    0.0000 H       1  UNL1        0.0000
     39 H          14.5229    1.0419    0.0000 H       1  UNL1        0.0000
     40 H          13.7258    1.0419    0.0000 H       1  UNL1        0.0000
     41 H           5.8626    1.0419    0.0000 H       1  UNL1        0.0000
     42 H           5.0656    1.0419    0.0000 H       1  UNL1        0.0000
     43 H          14.5919   -0.4080    0.0000 H       1  UNL1        0.0000
     44 H          15.3889   -0.4080    0.0000 H       1  UNL1        0.0000
     45 H          16.1664    0.0301    0.0000 H       1  UNL1        0.0000
     46 H          16.3933    0.8770    0.0000 H       1  UNL1        0.0000
     47 H          15.5464    1.1039    0.0000 H       1  UNL1        0.0000
     48 H           1.6900    0.1039    0.0000 H       1  UNL1        0.0000
     49 H           1.4631   -0.7430    0.0000 H       1  UNL1        0.0000
     50 H           2.3100   -0.9699    0.0000 H       1  UNL1        0.0000
     51 H           2.9030    1.2430    0.0000 H       1  UNL1        0.0000
     52 H           2.0560    1.4700    0.0000 H       1  UNL1        0.0000
     53 H           1.8291    0.6230    0.0000 H       1  UNL1        0.0000
     54 H           2.8291   -1.1090    0.0000 H       1  UNL1        0.0000
     55 H           3.6760   -1.3360    0.0000 H       1  UNL1        0.0000
     56 H           3.9030   -0.4890    0.0000 H       1  UNL1        0.0000
@<TRIPOS>BOND
     1     1     2    1
     2     1    18    1
     3     1    19    1
     4     1    20    1
     5     2    16    1
     6     3    16    2
     7     4     5    1
     8     4     6    1
     9     4    21    1
    10     4    22    1
    11     5     7    1
    12     5    23    1
    13     5    24    1
    14     6     8    1
    15     6    25    1
    16     6    26    1
    17     7     9    1
    18     7    27    1
    19     7    28    1
    20     8    10    1
    21     8    29    1
    22     8    30    1
    23     9    11    1
    24     9    31    1
    25     9    32    1
    26    10    12    1
    27    10    33    1
    28    10    34    1
    29    11    13    1
    30    11    35    1
    31    11    36    1
    32    12    14    1
    33    12    37    1
    34    12    38    1
    35    13    15    1
    36    13    39    1
    37    13    40    1
    38    14    16    1
    39    14    41    1
    40    14    42    1
    41    15    17    1
    42    15    43    1
    43    15    44    1
    44    17    45    1
    45    17    46    1
    46    17    47    1
    47    18    48    1
    48    18    49    1
    49    18    50    1
    50    19    51    1
    51    19    52    1
    52    19    53    1
    53    20    54    1
    54    20    55    1
    55    20    56    1
