@<TRIPOS>MOLECULE
IMPHY015558
 17 17 0 0 0
SMALL
GASTEIGER

@<TRIPOS>ATOM
      1 O           4.5981    2.5000    0.0000 O.2     1  UNL1       -0.2838
      2 C           2.8660   -0.5000    0.0000 C.ar    1  UNL1       -0.0249
      3 C           2.0000   -1.0000    0.0000 C.ar    1  UNL1       -0.0546
      4 C           3.7320   -1.0000    0.0000 C.ar    1  UNL1       -0.0546
      5 C           2.0000   -2.0000    0.0000 C.ar    1  UNL1       -0.0612
      6 C           3.7320   -2.0000    0.0000 C.ar    1  UNL1       -0.0612
      7 C           2.8660   -2.5000    0.0000 C.ar    1  UNL1       -0.0617
      8 C           2.8660    0.5000    0.0000 C.2     1  UNL1       -0.0509
      9 C           3.7320    1.0000    0.0000 C.2     1  UNL1       -0.0105
     10 C           3.7320    2.0000    0.0000 C.2     1  UNL1        0.2253
     11 H           1.4631   -0.6900    0.0000 H       1  UNL1        0.0623
     12 H           4.2690   -0.6900    0.0000 H       1  UNL1        0.0623
     13 H           1.4631   -2.3100    0.0000 H       1  UNL1        0.0618
     14 H           4.2690   -2.3100    0.0000 H       1  UNL1        0.0618
     15 H           2.8660   -3.1200    0.0000 H       1  UNL1        0.0618
     16 H           2.3291    0.8100    0.0000 H       1  UNL1        0.0625
     17 H           4.2690    0.6900    0.0000 H       1  UNL1        0.0657
@<TRIPOS>BOND
     1     1    10    2
     2     2     3   ar
     3     2     4   ar
     4     2     8    1
     5     3     5   ar
     6     3    11    1
     7     4     6   ar
     8     4    12    1
     9     5     7   ar
    10     5    13    1
    11     6     7   ar
    12     6    14    1
    13     7    15    1
    14     8     9    2
    15     8    16    1
    16     9    10    1
    17     9    17    1
