@<TRIPOS>MOLECULE
IMPHY001158
 55 59 0 0 0
SMALL
GASTEIGER

@<TRIPOS>ATOM
      1 O           7.2103    0.8246    0.0000 O.3     1  UNL1       -0.3748
      2 O           2.6194    3.1018    0.0000 O.3     1  UNL1       -0.3932
      3 O           4.3268   -0.8630    0.0000 O.2     1  UNL1       -0.2721
      4 O           4.9990   -2.9321    0.0000 O.3     1  UNL1       -0.2756
      5 N           4.0336    1.1763    0.0000 N.3     1  UNL1       -0.2939
      6 N           5.5868   -2.1231    0.0000 N.am    1  UNL1       -0.1476
      7 C           5.0370    2.4346    0.0000 C.3     1  UNL1       -0.0117
      8 C           5.5868    1.6064    0.0000 C.3     1  UNL1        0.0028
      9 C           4.9633    0.8246    0.0000 C.3     1  UNL1        0.0173
     10 C           4.0790    2.1693    0.0000 C.3     1  UNL1        0.0479
     11 C           6.0868   -0.5842    0.0000 C.3     1  UNL1        0.1035
     12 C           5.2662    0.5790    0.0000 C.3     1  UNL1       -0.0203
     13 C           6.9878   -0.1504    0.0000 C.3     1  UNL1        0.0771
     14 C           5.1859   -0.1504    0.0000 C.3     1  UNL1       -0.0164
     15 C           6.5868    1.6064    0.0000 C.3     1  UNL1        0.0526
     16 C           3.8130    3.1333    0.0000 C.3     1  UNL1       -0.0349
     17 C           3.0800    2.2142    0.0000 C.3     1  UNL1        0.0629
     18 C           6.8958   -1.1720    0.0000 C.ar    1  UNL1       -0.0062
     19 C           5.2778   -1.1720    0.0000 C.2     1  UNL1        0.2559
     20 C           3.1980    0.6268    0.0000 C.3     1  UNL1       -0.0119
     21 C           6.5868   -2.1231    0.0000 C.ar    1  UNL1        0.0686
     22 C           4.5148    3.8456    0.0000 C.3     1  UNL1       -0.0635
     23 C           7.9112   -0.9398    0.0000 C.ar    1  UNL1       -0.0556
     24 C           7.2718   -2.9078    0.0000 C.ar    1  UNL1       -0.0377
     25 C           8.6142   -1.7085    0.0000 C.ar    1  UNL1       -0.0614
     26 C           8.2923   -2.6991    0.0000 C.ar    1  UNL1       -0.0599
     27 C           5.4058   -3.8456    0.0000 C.3     1  UNL1        0.0629
     28 H           4.9329    3.2782    0.0000 H       1  UNL1        0.0324
     29 H           6.1168    2.2710    0.0000 H       1  UNL1        0.0341
     30 H           4.4334    0.1600    0.0000 H       1  UNL1        0.0466
     31 H           4.6470    0.6110    0.0000 H       1  UNL1        0.0294
     32 H           5.1272   -0.0252    0.0000 H       1  UNL1        0.0294
     33 H           7.7536    0.2184    0.0000 H       1  UNL1        0.0610
     34 H           4.5659   -0.1504    0.0000 H       1  UNL1        0.0294
     35 H           5.0479   -0.7548    0.0000 H       1  UNL1        0.0294
     36 H           7.1454    1.8754    0.0000 H       1  UNL1        0.0563
     37 H           6.4489    2.2109    0.0000 H       1  UNL1        0.0563
     38 H           3.4536    3.6385    0.0000 H       1  UNL1        0.0281
     39 H           3.2530    2.8671    0.0000 H       1  UNL1        0.0281
     40 H           2.4885    2.0285    0.0000 H       1  UNL1        0.0576
     41 H           3.1602    1.5994    0.0000 H       1  UNL1        0.0576
     42 H           2.8574    1.1448    0.0000 H       1  UNL1        0.0391
     43 H           2.6800    0.2862    0.0000 H       1  UNL1        0.0391
     44 H           3.5387    0.1088    0.0000 H       1  UNL1        0.0391
     45 H           4.9564    3.4105    0.0000 H       1  UNL1        0.0230
     46 H           4.9499    4.2873    0.0000 H       1  UNL1        0.0230
     47 H           4.0731    4.2808    0.0000 H       1  UNL1        0.0230
     48 H           8.0960   -0.3480    0.0000 H       1  UNL1        0.0621
     49 H           2.0000    3.1296    0.0000 H       1  UNL1        0.2095
     50 H           7.0734   -3.4952    0.0000 H       1  UNL1        0.0637
     51 H           9.2201   -1.5772    0.0000 H       1  UNL1        0.0618
     52 H           8.7054   -3.1615    0.0000 H       1  UNL1        0.0618
     53 H           4.8394   -4.0978    0.0000 H       1  UNL1        0.0547
     54 H           5.6579   -4.4120    0.0000 H       1  UNL1        0.0547
     55 H           5.9722   -3.5935    0.0000 H       1  UNL1        0.0547
@<TRIPOS>BOND
     1     1    13    1
     2     1    15    1
     3     2    17    1
     4     2    49    1
     5     3    19    2
     6     4     6    1
     7     4    27    1
     8     5     9    1
     9     5    10    1
    10     5    20    1
    11     6    19   am
    12     6    21    1
    13     7     8    1
    14     7    10    1
    15     7    12    1
    16     7    28    1
    17     8     9    1
    18     8    15    1
    19     8    29    1
    20     9    14    1
    21     9    30    1
    22    10    16    1
    23    10    17    1
    24    11    13    1
    25    11    14    1
    26    11    18    1
    27    11    19    1
    28    12    13    1
    29    12    31    1
    30    12    32    1
    31    13    33    1
    32    14    34    1
    33    14    35    1
    34    15    36    1
    35    15    37    1
    36    16    22    1
    37    16    38    1
    38    16    39    1
    39    17    40    1
    40    17    41    1
    41    18    21   ar
    42    18    23   ar
    43    20    42    1
    44    20    43    1
    45    20    44    1
    46    21    24   ar
    47    22    45    1
    48    22    46    1
    49    22    47    1
    50    23    25   ar
    51    23    48    1
    52    24    26   ar
    53    24    50    1
    54    25    26   ar
    55    25    51    1
    56    26    52    1
    57    27    53    1
    58    27    54    1
    59    27    55    1
