@<TRIPOS>MOLECULE
IMPHY017172
 35 34 0 0 0
SMALL
GASTEIGER

@<TRIPOS>ATOM
      1 O           2.5369   -0.8660    0.0000 O.3     1  UNL1       -0.3848
      2 O           8.5991   -0.3660    0.0000 O.3     1  UNL1       -0.4604
      3 O           9.4651    1.1340    0.0000 O.2     1  UNL1       -0.2512
      4 C           3.4030   -0.3660    0.0000 C.3     1  UNL1        0.0814
      5 C           4.2690    0.1340    0.0000 C.3     1  UNL1       -0.0172
      6 C           5.1350   -0.3660    0.0000 C.3     1  UNL1       -0.0315
      7 C           3.9030   -1.2320    0.0000 C.3     1  UNL1       -0.0324
      8 C           6.0010    0.1340    0.0000 C.2     1  UNL1       -0.0817
      9 C           2.9030    0.5000    0.0000 C.2     1  UNL1       -0.0602
     10 C           6.8671   -0.3660    0.0000 C.2     1  UNL1       -0.0396
     11 C           7.7331    0.1340    0.0000 C.3     1  UNL1        0.1133
     12 C           6.8671   -1.3660    0.0000 C.3     1  UNL1       -0.0406
     13 C           3.4030    1.3660    0.0000 C.2     1  UNL1       -0.1000
     14 C           9.4651    0.1340    0.0000 C.2     1  UNL1        0.3042
     15 C          10.3312   -0.3660    0.0000 C.3     1  UNL1        0.0332
     16 H           4.6675    0.6089    0.0000 H       1  UNL1        0.0299
     17 H           3.8705    0.6089    0.0000 H       1  UNL1        0.0299
     18 H           4.7365   -0.8410    0.0000 H       1  UNL1        0.0308
     19 H           5.5335   -0.8410    0.0000 H       1  UNL1        0.0308
     20 H           3.3660   -1.5420    0.0000 H       1  UNL1        0.0260
     21 H           4.2130   -1.7690    0.0000 H       1  UNL1        0.0260
     22 H           4.4399   -0.9221    0.0000 H       1  UNL1        0.0260
     23 H           6.0010    0.7540    0.0000 H       1  UNL1        0.0573
     24 H           2.2830    0.5000    0.0000 H       1  UNL1        0.0594
     25 H           2.0000   -0.5560    0.0000 H       1  UNL1        0.2106
     26 H           8.1316    0.6089    0.0000 H       1  UNL1        0.0745
     27 H           7.3346    0.6089    0.0000 H       1  UNL1        0.0745
     28 H           6.2471   -1.3660    0.0000 H       1  UNL1        0.0275
     29 H           6.8671   -1.9860    0.0000 H       1  UNL1        0.0275
     30 H           7.4871   -1.3660    0.0000 H       1  UNL1        0.0275
     31 H           4.0230    1.3660    0.0000 H       1  UNL1        0.0533
     32 H           3.0930    1.9030    0.0000 H       1  UNL1        0.0533
     33 H          10.0212   -0.9030    0.0000 H       1  UNL1        0.0342
     34 H          10.8681   -0.6760    0.0000 H       1  UNL1        0.0342
     35 H          10.6412    0.1709    0.0000 H       1  UNL1        0.0342
@<TRIPOS>BOND
     1     1     4    1
     2     1    25    1
     3     2    11    1
     4     2    14    1
     5     3    14    2
     6     4     5    1
     7     4     7    1
     8     4     9    1
     9     5     6    1
    10     5    16    1
    11     5    17    1
    12     6     8    1
    13     6    18    1
    14     6    19    1
    15     7    20    1
    16     7    21    1
    17     7    22    1
    18     8    10    2
    19     8    23    1
    20     9    13    2
    21     9    24    1
    22    10    11    1
    23    10    12    1
    24    11    26    1
    25    11    27    1
    26    12    28    1
    27    12    29    1
    28    12    30    1
    29    13    31    1
    30    13    32    1
    31    14    15    1
    32    15    33    1
    33    15    34    1
    34    15    35    1
