@<TRIPOS>MOLECULE
IMPHY000185
 39 39 0 0 0
SMALL
GASTEIGER

@<TRIPOS>ATOM
      1 O           2.8660   -2.5000    0.0000 O.3     1  UNL1       -0.4648
      2 O           2.8660    2.5000    0.0000 O.3     1  UNL1       -0.4913
      3 O           6.3301    2.5000    0.0000 O.3     1  UNL1       -0.4913
      4 O           4.5981    3.5000    0.0000 O.3     1  UNL1       -0.4885
      5 O           3.7320   -4.0000    0.0000 O.2     1  UNL1       -0.2512
      6 C           4.5981   -0.5000    0.0000 C.3     1  UNL1       -0.0244
      7 C           3.7320   -1.0000    0.0000 C.3     1  UNL1       -0.0146
      8 C           4.5981    0.5000    0.0000 C.ar    1  UNL1       -0.0401
      9 C           3.7320   -2.0000    0.0000 C.3     1  UNL1        0.0927
     10 C           5.4641    1.0000    0.0000 C.ar    1  UNL1       -0.0129
     11 C           3.7320    1.0000    0.0000 C.ar    1  UNL1       -0.0129
     12 C           3.7320    2.0000    0.0000 C.ar    1  UNL1        0.1654
     13 C           5.4641    2.0000    0.0000 C.ar    1  UNL1        0.1654
     14 C           4.5981    2.5000    0.0000 C.ar    1  UNL1        0.2035
     15 C           2.8660   -3.5000    0.0000 C.2     1  UNL1        0.3039
     16 C           2.0000    2.0000    0.0000 C.3     1  UNL1        0.0790
     17 C           7.1962    2.0000    0.0000 C.3     1  UNL1        0.0790
     18 C           5.4641    4.0000    0.0000 C.3     1  UNL1        0.0791
     19 C           2.0000   -4.0000    0.0000 C.3     1  UNL1        0.0332
     20 H           4.8101   -1.0826    0.0000 H       1  UNL1        0.0314
     21 H           5.2087   -0.3923    0.0000 H       1  UNL1        0.0314
     22 H           3.5200   -0.4174    0.0000 H       1  UNL1        0.0301
     23 H           3.1215   -1.1077    0.0000 H       1  UNL1        0.0301
     24 H           3.9441   -2.5826    0.0000 H       1  UNL1        0.0697
     25 H           4.3426   -1.8923    0.0000 H       1  UNL1        0.0697
     26 H           6.0010    0.6900    0.0000 H       1  UNL1        0.0658
     27 H           3.1951    0.6900    0.0000 H       1  UNL1        0.0658
     28 H           1.6900    2.5369    0.0000 H       1  UNL1        0.0660
     29 H           1.4631    1.6900    0.0000 H       1  UNL1        0.0660
     30 H           2.3100    1.4631    0.0000 H       1  UNL1        0.0660
     31 H           6.8862    1.4631    0.0000 H       1  UNL1        0.0660
     32 H           7.7331    1.6900    0.0000 H       1  UNL1        0.0660
     33 H           7.5062    2.5369    0.0000 H       1  UNL1        0.0660
     34 H           5.7741    3.4631    0.0000 H       1  UNL1        0.0660
     35 H           6.0010    4.3100    0.0000 H       1  UNL1        0.0660
     36 H           5.1541    4.5369    0.0000 H       1  UNL1        0.0660
     37 H           1.6900   -3.4631    0.0000 H       1  UNL1        0.0342
     38 H           1.4631   -4.3100    0.0000 H       1  UNL1        0.0342
     39 H           2.3100   -4.5369    0.0000 H       1  UNL1        0.0342
@<TRIPOS>BOND
     1     1     9    1
     2     1    15    1
     3     2    12    1
     4     2    16    1
     5     3    13    1
     6     3    17    1
     7     4    14    1
     8     4    18    1
     9     5    15    2
    10     6     7    1
    11     6     8    1
    12     6    20    1
    13     6    21    1
    14     7     9    1
    15     7    22    1
    16     7    23    1
    17     8    10   ar
    18     8    11   ar
    19     9    24    1
    20     9    25    1
    21    10    13   ar
    22    10    26    1
    23    11    12   ar
    24    11    27    1
    25    12    14   ar
    26    13    14   ar
    27    15    19    1
    28    16    28    1
    29    16    29    1
    30    16    30    1
    31    17    31    1
    32    17    32    1
    33    17    33    1
    34    18    34    1
    35    18    35    1
    36    18    36    1
    37    19    37    1
    38    19    38    1
    39    19    39    1
