@<TRIPOS>MOLECULE
IMPHY004164
 30 31 0 0 0
SMALL
GASTEIGER

@<TRIPOS>ATOM
      1 O           6.0812   -0.9877    0.0000 O.3     1  UNL1       -0.4507
      2 O           2.5369   -1.1830    0.0000 O.3     1  UNL1       -0.3916
      3 O           7.6648   -0.1830    0.0000 O.2     1  UNL1       -0.2456
      4 C           4.2690    0.8170    0.0000 C.3     1  UNL1       -0.0073
      5 C           5.1350   -0.6830    0.0000 C.3     1  UNL1        0.1354
      6 C           5.1350    0.3170    0.0000 C.2     1  UNL1       -0.0143
      7 C           3.4030    0.3170    0.0000 C.3     1  UNL1       -0.0177
      8 C           4.2690   -1.1830    0.0000 C.3     1  UNL1        0.0170
      9 C           3.4030   -0.6830    0.0000 C.3     1  UNL1        0.0600
     10 C           3.7690    1.6830    0.0000 C.3     1  UNL1       -0.0559
     11 C           4.7690    1.6830    0.0000 C.3     1  UNL1       -0.0559
     12 C           5.1350   -1.6830    0.0000 C.3     1  UNL1       -0.0207
     13 C           6.0812    0.6217    0.0000 C.2     1  UNL1        0.0260
     14 C           6.6648   -0.1830    0.0000 C.2     1  UNL1        0.3329
     15 H           3.1909    0.8996    0.0000 H       1  UNL1        0.0298
     16 H           2.7924    0.2093    0.0000 H       1  UNL1        0.0298
     17 H           3.8705   -1.6580    0.0000 H       1  UNL1        0.0332
     18 H           4.6675   -1.6580    0.0000 H       1  UNL1        0.0332
     19 H           3.4030   -1.3030    0.0000 H       1  UNL1        0.0595
     20 H           4.3059    1.9930    0.0000 H       1  UNL1        0.0238
     21 H           3.4590    2.2200    0.0000 H       1  UNL1        0.0238
     22 H           3.2320    1.3730    0.0000 H       1  UNL1        0.0238
     23 H           5.3059    1.3730    0.0000 H       1  UNL1        0.0238
     24 H           5.0790    2.2200    0.0000 H       1  UNL1        0.0238
     25 H           4.2320    1.9930    0.0000 H       1  UNL1        0.0238
     26 H           4.5150   -1.6830    0.0000 H       1  UNL1        0.0271
     27 H           5.1350   -2.3030    0.0000 H       1  UNL1        0.0271
     28 H           5.7550   -1.6830    0.0000 H       1  UNL1        0.0271
     29 H           6.2738    1.2110    0.0000 H       1  UNL1        0.0690
     30 H           2.0000   -0.8730    0.0000 H       1  UNL1        0.2098
@<TRIPOS>BOND
     1     1     5    1
     2     1    14    1
     3     9     2    1
     4     2    30    1
     5     3    14    2
     6     4     6    1
     7     4     7    1
     8     4    10    1
     9     4    11    1
    10     5     6    1
    11     5     8    1
    12     5    12    1
    13     6    13    2
    14     7     9    1
    15     7    15    1
    16     7    16    1
    17     8     9    1
    18     8    17    1
    19     8    18    1
    20     9    19    1
    21    10    20    1
    22    10    21    1
    23    10    22    1
    24    11    23    1
    25    11    24    1
    26    11    25    1
    27    12    26    1
    28    12    27    1
    29    12    28    1
    30    13    14    1
    31    13    29    1
