@<TRIPOS>MOLECULE
IMPHY012400
 63 66 0 0 0
SMALL
GASTEIGER

@<TRIPOS>ATOM
      1 O           8.6541    0.9719    0.0000 O.3     1  UNL1       -0.4565
      2 O           8.6500   -2.3961    0.0000 O.3     1  UNL1       -0.4525
      3 O           7.1011   -3.0376    0.0000 O.3     1  UNL1       -0.4489
      4 O           5.4506   -2.0321    0.0000 O.3     1  UNL1       -0.4907
      5 O           4.8576   -1.7865    0.0000 O.3     1  UNL1       -0.4907
      6 O           2.3791    0.4367    0.0000 O.3     1  UNL1       -0.4913
      7 O           3.1630   -1.4557    0.0000 O.3     1  UNL1       -0.4885
      8 O           8.6541    2.7040    0.0000 O.2     1  UNL1       -0.2511
      9 C           7.2714    1.8958    0.0000 C.3     1  UNL1        0.0005
     10 C           6.3476    2.2785    0.0000 C.3     1  UNL1       -0.0336
     11 C           7.6541    0.9719    0.0000 C.3     1  UNL1        0.1316
     12 C           5.4237    1.8958    0.0000 C.3     1  UNL1       -0.0239
     13 C           7.2714    0.0481    0.0000 C.ar    1  UNL1        0.0080
     14 C           5.0410    0.9719    0.0000 C.ar    1  UNL1       -0.0321
     15 C           6.3476   -0.3346    0.0000 C.ar    1  UNL1        0.0382
     16 C           7.9786    2.6029    0.0000 C.3     1  UNL1       -0.0585
     17 C           6.3476    3.2785    0.0000 C.3     1  UNL1       -0.0617
     18 C           5.4237    0.0481    0.0000 C.ar    1  UNL1        0.0348
     19 C           8.1075   -0.5732    0.0000 C.ar    1  UNL1       -0.0086
     20 C           6.1957   -1.3651    0.0000 C.ar    1  UNL1        0.1735
     21 C           4.0105    1.1238    0.0000 C.ar    1  UNL1       -0.0123
     22 C           4.8024   -0.7880    0.0000 C.ar    1  UNL1        0.1732
     23 C           7.9795   -1.6070    0.0000 C.ar    1  UNL1        0.1703
     24 C           7.0172   -2.0056    0.0000 C.ar    1  UNL1        0.2081
     25 C           3.3700    0.3023    0.0000 C.ar    1  UNL1        0.1655
     26 C           3.7687   -0.6600    0.0000 C.ar    1  UNL1        0.2041
     27 C           9.1541    1.8380    0.0000 C.2     1  UNL1        0.3045
     28 C           8.1082   -3.2785    0.0000 C.3     1  UNL1        0.2334
     29 C          10.1541    1.8380    0.0000 C.3     1  UNL1        0.0333
     30 C           5.6558   -3.0109    0.0000 C.3     1  UNL1        0.0790
     31 C           4.0205   -2.3335    0.0000 C.3     1  UNL1        0.0790
     32 C           2.0000    1.3620    0.0000 C.3     1  UNL1        0.0790
     33 C           2.1710   -1.3290    0.0000 C.3     1  UNL1        0.0791
     34 H           7.8795    1.7749    0.0000 H       1  UNL1        0.0340
     35 H           6.8631    2.6230    0.0000 H       1  UNL1        0.0305
     36 H           7.9986    0.4564    0.0000 H       1  UNL1        0.0788
     37 H           5.3428    2.5105    0.0000 H       1  UNL1        0.0316
     38 H           4.8090    1.9767    0.0000 H       1  UNL1        0.0316
     39 H           8.4170    2.1645    0.0000 H       1  UNL1        0.0234
     40 H           8.4170    3.0413    0.0000 H       1  UNL1        0.0234
     41 H           7.5402    3.0413    0.0000 H       1  UNL1        0.0234
     42 H           6.9676    3.2785    0.0000 H       1  UNL1        0.0233
     43 H           6.3476    3.8985    0.0000 H       1  UNL1        0.0233
     44 H           5.7276    3.2785    0.0000 H       1  UNL1        0.0233
     45 H           8.6775   -0.3294    0.0000 H       1  UNL1        0.0659
     46 H           3.7799    1.6993    0.0000 H       1  UNL1        0.0658
     47 H           7.9014   -3.8630    0.0000 H       1  UNL1        0.1166
     48 H           8.6677   -3.5456    0.0000 H       1  UNL1        0.1166
     49 H          10.1541    1.2180    0.0000 H       1  UNL1        0.0342
     50 H          10.7741    1.8380    0.0000 H       1  UNL1        0.0342
     51 H          10.1541    2.4580    0.0000 H       1  UNL1        0.0342
     52 H           5.0490   -3.1381    0.0000 H       1  UNL1        0.0660
     53 H           5.7830   -3.6177    0.0000 H       1  UNL1        0.0660
     54 H           6.2626   -2.8837    0.0000 H       1  UNL1        0.0660
     55 H           3.6813   -1.8146    0.0000 H       1  UNL1        0.0660
     56 H           3.5015   -2.6727    0.0000 H       1  UNL1        0.0660
     57 H           4.3597   -2.8525    0.0000 H       1  UNL1        0.0660
     58 H           2.5737    1.5971    0.0000 H       1  UNL1        0.0660
     59 H           1.7650    1.9357    0.0000 H       1  UNL1        0.0660
     60 H           1.4263    1.1270    0.0000 H       1  UNL1        0.0660
     61 H           2.2496   -0.7140    0.0000 H       1  UNL1        0.0660
     62 H           1.5560   -1.2504    0.0000 H       1  UNL1        0.0660
     63 H           2.0925   -1.9440    0.0000 H       1  UNL1        0.0660
@<TRIPOS>BOND
     1    11     1    1
     2     1    27    1
     3     2    23    1
     4     2    28    1
     5     3    24    1
     6     3    28    1
     7     4    20    1
     8     4    30    1
     9     5    22    1
    10     5    31    1
    11     6    25    1
    12     6    32    1
    13     7    26    1
    14     7    33    1
    15     8    27    2
    16     9    10    1
    17     9    11    1
    18     9    16    1
    19     9    34    1
    20    10    12    1
    21    10    17    1
    22    10    35    1
    23    11    13    1
    24    11    36    1
    25    12    14    1
    26    12    37    1
    27    12    38    1
    28    13    15   ar
    29    13    19   ar
    30    14    18   ar
    31    14    21   ar
    32    15    18    1
    33    15    20   ar
    34    16    39    1
    35    16    40    1
    36    16    41    1
    37    17    42    1
    38    17    43    1
    39    17    44    1
    40    18    22   ar
    41    19    23   ar
    42    19    45    1
    43    20    24   ar
    44    21    25   ar
    45    21    46    1
    46    22    26   ar
    47    23    24   ar
    48    25    26   ar
    49    27    29    1
    50    28    47    1
    51    28    48    1
    52    29    49    1
    53    29    50    1
    54    29    51    1
    55    30    52    1
    56    30    53    1
    57    30    54    1
    58    31    55    1
    59    31    56    1
    60    31    57    1
    61    32    58    1
    62    32    59    1
    63    32    60    1
    64    33    61    1
    65    33    62    1
    66    33    63    1
