@<TRIPOS>MOLECULE
IMPHY017640
 46 45 0 0 0
SMALL
GASTEIGER

@<TRIPOS>ATOM
      1 O           2.0000   -3.5600    0.0000 O.2     1  UNL1       -0.3010
      2 C           4.5981   -0.0600    0.0000 C.3     1  UNL1       -0.0528
      3 C           3.7320   -0.5600    0.0000 C.3     1  UNL1       -0.0527
      4 C           4.5981    0.9400    0.0000 C.3     1  UNL1       -0.0496
      5 C           3.7320   -1.5600    0.0000 C.3     1  UNL1       -0.0466
      6 C           5.4641    1.4400    0.0000 C.3     1  UNL1       -0.0348
      7 C           2.8660   -2.0600    0.0000 C.3     1  UNL1        0.0028
      8 C           5.4641    2.4400    0.0000 C.2     1  UNL1       -0.0876
      9 C           6.3301    2.9400    0.0000 C.2     1  UNL1       -0.0842
     10 C           2.8660   -3.0600    0.0000 C.2     1  UNL1        0.1203
     11 C           7.1962    2.4400    0.0000 C.3     1  UNL1       -0.0165
     12 C           8.0622    2.9400    0.0000 C.2     1  UNL1       -0.0839
     13 C           8.9282    2.4400    0.0000 C.2     1  UNL1       -0.0839
     14 C           8.9282    1.4400    0.0000 C.3     1  UNL1       -0.0165
     15 C           9.7942    0.9400    0.0000 C.2     1  UNL1       -0.0842
     16 C           8.9282   -0.5600    0.0000 C.3     1  UNL1       -0.0376
     17 C           9.7942   -0.0600    0.0000 C.2     1  UNL1       -0.0879
     18 C           8.9282   -1.5600    0.0000 C.3     1  UNL1       -0.0618
     19 H           4.8101   -0.6426    0.0000 H       1  UNL1        0.0265
     20 H           5.2087    0.0477    0.0000 H       1  UNL1        0.0265
     21 H           3.5200    0.0226    0.0000 H       1  UNL1        0.0265
     22 H           3.1215   -0.6677    0.0000 H       1  UNL1        0.0265
     23 H           4.3860    1.5226    0.0000 H       1  UNL1        0.0268
     24 H           3.9875    0.8323    0.0000 H       1  UNL1        0.0268
     25 H           3.9441   -2.1426    0.0000 H       1  UNL1        0.0269
     26 H           4.3426   -1.4523    0.0000 H       1  UNL1        0.0269
     27 H           5.6762    0.8574    0.0000 H       1  UNL1        0.0307
     28 H           6.0747    1.5477    0.0000 H       1  UNL1        0.0307
     29 H           2.6540   -1.4774    0.0000 H       1  UNL1        0.0339
     30 H           2.2554   -2.1677    0.0000 H       1  UNL1        0.0339
     31 H           4.9272    2.7500    0.0000 H       1  UNL1        0.0569
     32 H           6.3301    3.5600    0.0000 H       1  UNL1        0.0572
     33 H           3.4030   -3.3700    0.0000 H       1  UNL1        0.1026
     34 H           6.7976    1.9650    0.0000 H       1  UNL1        0.0350
     35 H           7.5947    1.9650    0.0000 H       1  UNL1        0.0350
     36 H           8.0622    3.5600    0.0000 H       1  UNL1        0.0572
     37 H           9.4651    2.7500    0.0000 H       1  UNL1        0.0572
     38 H           8.3176    1.5477    0.0000 H       1  UNL1        0.0350
     39 H           8.7162    0.8574    0.0000 H       1  UNL1        0.0350
     40 H          10.3312    1.2500    0.0000 H       1  UNL1        0.0572
     41 H           8.7162    0.0226    0.0000 H       1  UNL1        0.0305
     42 H           8.3176   -0.6677    0.0000 H       1  UNL1        0.0305
     43 H          10.3312   -0.3700    0.0000 H       1  UNL1        0.0569
     44 H           8.3082   -1.5600    0.0000 H       1  UNL1        0.0233
     45 H           8.9282   -2.1800    0.0000 H       1  UNL1        0.0233
     46 H           9.5482   -1.5600    0.0000 H       1  UNL1        0.0233
@<TRIPOS>BOND
     1     1    10    2
     2     2     3    1
     3     2     4    1
     4     2    19    1
     5     2    20    1
     6     3     5    1
     7     3    21    1
     8     3    22    1
     9     4     6    1
    10     4    23    1
    11     4    24    1
    12     5     7    1
    13     5    25    1
    14     5    26    1
    15     6     8    1
    16     6    27    1
    17     6    28    1
    18     7    10    1
    19     7    29    1
    20     7    30    1
    21     8     9    2
    22     8    31    1
    23     9    11    1
    24     9    32    1
    25    10    33    1
    26    11    12    1
    27    11    34    1
    28    11    35    1
    29    12    13    2
    30    12    36    1
    31    13    14    1
    32    13    37    1
    33    14    15    1
    34    14    38    1
    35    14    39    1
    36    15    17    2
    37    15    40    1
    38    16    17    1
    39    16    18    1
    40    16    41    1
    41    16    42    1
    42    17    43    1
    43    18    44    1
    44    18    45    1
    45    18    46    1
