@<TRIPOS>MOLECULE
IMPHY016847
 38 39 0 0 0
SMALL
GASTEIGER

@<TRIPOS>ATOM
      1 O           7.2067    2.0223    0.0000 O.2     1  UNL1       -0.2960
      2 C           5.4641   -1.0223    0.0000 C.3     1  UNL1       -0.0249
      3 C           5.4641   -0.0223    0.0000 C.3     1  UNL1       -0.0072
      4 C           4.5981   -1.5223    0.0000 C.3     1  UNL1       -0.0465
      5 C           4.5981    0.4777    0.0000 C.3     1  UNL1       -0.0391
      6 C           3.7320   -0.0223    0.0000 C.3     1  UNL1       -0.0198
      7 C           6.3580   -1.5570    0.0000 C.3     1  UNL1       -0.0436
      8 C           3.7320   -1.0223    0.0000 C.3     1  UNL1       -0.0460
      9 C           5.4641   -2.0223    0.0000 C.3     1  UNL1       -0.0590
     10 C           6.3580    0.5124    0.0000 C.2     1  UNL1       -0.0085
     11 C           7.2641   -1.0431    0.0000 C.3     1  UNL1       -0.0336
     12 C           7.2641   -0.0015    0.0000 C.2     1  UNL1       -0.0775
     13 C           2.8660    0.4777    0.0000 C.2     1  UNL1       -0.0766
     14 C           6.3465    1.5123    0.0000 C.2     1  UNL1        0.1462
     15 C           2.0000   -0.0223    0.0000 C.3     1  UNL1       -0.0438
     16 C           2.8660    1.4777    0.0000 C.2     1  UNL1       -0.0994
     17 H           5.4593    0.5977    0.0000 H       1  UNL1        0.0355
     18 H           4.1996   -1.9972    0.0000 H       1  UNL1        0.0271
     19 H           4.9966   -1.9972    0.0000 H       1  UNL1        0.0271
     20 H           4.9966    0.9527    0.0000 H       1  UNL1        0.0277
     21 H           4.1996    0.9527    0.0000 H       1  UNL1        0.0277
     22 H           3.7320    0.5977    0.0000 H       1  UNL1        0.0346
     23 H           5.9534   -2.0267    0.0000 H       1  UNL1        0.0274
     24 H           6.7517   -2.0360    0.0000 H       1  UNL1        0.0274
     25 H           3.1215   -0.9146    0.0000 H       1  UNL1        0.0271
     26 H           3.5200   -1.6049    0.0000 H       1  UNL1        0.0271
     27 H           4.8441   -2.0223    0.0000 H       1  UNL1        0.0235
     28 H           5.4641   -2.6423    0.0000 H       1  UNL1        0.0235
     29 H           6.0841   -2.0223    0.0000 H       1  UNL1        0.0235
     30 H           7.4732   -1.6268    0.0000 H       1  UNL1        0.0308
     31 H           7.8750   -0.9370    0.0000 H       1  UNL1        0.0308
     32 H           7.7998    0.3106    0.0000 H       1  UNL1        0.0576
     33 H           5.8060    1.8161    0.0000 H       1  UNL1        0.1078
     34 H           1.6900    0.5146    0.0000 H       1  UNL1        0.0274
     35 H           1.4631   -0.3323    0.0000 H       1  UNL1        0.0274
     36 H           2.3100   -0.5592    0.0000 H       1  UNL1        0.0274
     37 H           3.4030    1.7877    0.0000 H       1  UNL1        0.0534
     38 H           2.3291    1.7877    0.0000 H       1  UNL1        0.0534
@<TRIPOS>BOND
     1     1    14    2
     2     2     3    1
     3     2     4    1
     4     2     7    1
     5     2     9    1
     6     3     5    1
     7     3    10    1
     8     3    17    1
     9     4     8    1
    10     4    18    1
    11     4    19    1
    12     5     6    1
    13     5    20    1
    14     5    21    1
    15     6     8    1
    16     6    13    1
    17     6    22    1
    18     7    11    1
    19     7    23    1
    20     7    24    1
    21     8    25    1
    22     8    26    1
    23     9    27    1
    24     9    28    1
    25     9    29    1
    26    10    12    2
    27    10    14    1
    28    11    12    1
    29    11    30    1
    30    11    31    1
    31    12    32    1
    32    13    15    1
    33    13    16    2
    34    14    33    1
    35    15    34    1
    36    15    35    1
    37    15    36    1
    38    16    37    1
    39    16    38    1
