@<TRIPOS>MOLECULE
IMPHY009252
 107 112 0 0 0
SMALL
GASTEIGER

@<TRIPOS>ATOM
      1 O           8.5991    0.2680    0.0000 O.3     1  UNL1       -0.3290
      2 O          14.6720   -0.2476    0.0000 O.3     1  UNL1       -0.3302
      3 O           6.8671   -1.7320    0.0000 O.3     1  UNL1       -0.4555
      4 O          10.3312    0.2680    0.0000 O.3     1  UNL1       -0.4598
      5 O           8.5991   -2.7320    0.0000 O.3     1  UNL1       -0.3852
      6 O          10.3312   -1.7320    0.0000 O.3     1  UNL1       -0.3829
      7 O          13.8233    1.2623    0.0000 O.3     1  UNL1       -0.4515
      8 O          13.7771   -2.7374    0.0000 O.3     1  UNL1       -0.3864
      9 O          12.0567   -1.7175    0.0000 O.3     1  UNL1       -0.3864
     10 O          12.0799    0.2824    0.0000 O.3     1  UNL1       -0.3829
     11 O           6.0010   -0.2320    0.0000 O.3     1  UNL1       -0.4615
     12 O          16.3923   -1.2676    0.0000 O.3     1  UNL1       -0.4589
     13 O          12.1145    3.2822    0.0000 O.2     1  UNL1       -0.1997
     14 O           7.7331   -3.2320    0.0000 O.2     1  UNL1       -0.2502
     15 O           8.5849    3.3472    0.0000 O.3     1  UNL1       -0.5063
     16 O           5.1350    1.2680    0.0000 O.2     1  UNL1       -0.2502
     17 O          17.2410   -2.7775    0.0000 O.2     1  UNL1       -0.2456
     18 O           5.1350   -4.7320    0.0000 O.3     1  UNL1       -0.4802
     19 O           6.8671   -4.7320    0.0000 O.2     1  UNL1       -0.2504
     20 O           2.5369   -0.2320    0.0000 O.3     1  UNL1       -0.4802
     21 O          16.4617    4.7320    0.0000 O.3     1  UNL1       -0.5068
     22 O           3.4030    1.2680    0.0000 O.2     1  UNL1       -0.2504
     23 O          20.7511    1.1822    0.0000 O.3     1  UNL1       -0.5033
     24 O          22.4715    0.1622    0.0000 O.3     1  UNL1       -0.5033
     25 C           7.7331   -1.2320    0.0000 C.3     1  UNL1        0.1606
     26 C           8.5991   -1.7320    0.0000 C.3     1  UNL1        0.1262
     27 C           7.7331   -0.2320    0.0000 C.3     1  UNL1        0.1360
     28 C           9.4651   -1.2320    0.0000 C.3     1  UNL1        0.1465
     29 C           9.4651   -0.2320    0.0000 C.3     1  UNL1        0.2309
     30 C          13.7887   -1.7375    0.0000 C.3     1  UNL1        0.1130
     31 C          12.9285   -1.2275    0.0000 C.3     1  UNL1        0.1152
     32 C          14.6604   -1.2476    0.0000 C.3     1  UNL1        0.1250
     33 C          12.9400   -0.2276    0.0000 C.3     1  UNL1        0.1454
     34 C          13.8118    0.2624    0.0000 C.3     1  UNL1        0.2313
     35 C           6.8671    0.2680    0.0000 C.3     1  UNL1        0.1223
     36 C          15.5206   -1.7575    0.0000 C.3     1  UNL1        0.1215
     37 C          10.3312    1.2680    0.0000 C.ar    1  UNL1        0.1437
     38 C          12.9632    1.7723    0.0000 C.ar    1  UNL1        0.2288
     39 C          11.2312    1.7923    0.0000 C.ar    1  UNL1        0.1245
     40 C           6.8671   -2.7320    0.0000 C.2     1  UNL1        0.3183
     41 C          12.0914    1.2823    0.0000 C.ar    1  UNL1        0.0093
     42 C          11.2428    2.7922    0.0000 C.ar    1  UNL1        0.3708
     43 C          12.9747    2.7722    0.0000 C.ar    1  UNL1        0.4045
     44 C           9.4311    1.7923    0.0000 C.ar    1  UNL1        0.0229
     45 C           6.0010   -3.2320    0.0000 C.3     1  UNL1        0.1418
     46 C          10.3551    3.3372    0.0000 C.ar    1  UNL1        0.0847
     47 C           9.4431    2.8339    0.0000 C.ar    1  UNL1        0.1293
     48 C           5.1350    0.2680    0.0000 C.2     1  UNL1        0.3180
     49 C          13.8465    3.2622    0.0000 C.ar    1  UNL1        0.0830
     50 C          17.2525   -1.7776    0.0000 C.2     1  UNL1        0.3320
     51 C           4.2690   -0.2320    0.0000 C.3     1  UNL1        0.1418
     52 C           6.0010   -4.2320    0.0000 C.2     1  UNL1        0.3155
     53 C          14.7067    2.7522    0.0000 C.ar    1  UNL1       -0.0420
     54 C          13.8580    4.2621    0.0000 C.ar    1  UNL1       -0.0420
     55 C          18.1243   -1.2876    0.0000 C.2     1  UNL1        0.0231
     56 C          15.5784    3.2421    0.0000 C.ar    1  UNL1       -0.0193
     57 C          14.7298    4.7520    0.0000 C.ar    1  UNL1       -0.0193
     58 C           3.4030    0.2680    0.0000 C.2     1  UNL1        0.3155
     59 C          15.5900    4.2421    0.0000 C.ar    1  UNL1        0.1169
     60 C          18.9845   -1.7976    0.0000 C.2     1  UNL1       -0.0477
     61 C          19.8562   -1.3076    0.0000 C.ar    1  UNL1       -0.0211
     62 C          19.8678   -0.3077    0.0000 C.ar    1  UNL1       -0.0094
     63 C          20.7164   -1.8176    0.0000 C.ar    1  UNL1       -0.0509
     64 C          20.7395    0.1823    0.0000 C.ar    1  UNL1        0.1588
     65 C          21.5882   -1.3277    0.0000 C.ar    1  UNL1       -0.0160
     66 C          21.5997   -0.3277    0.0000 C.ar    1  UNL1        0.1582
     67 H           7.7331   -1.8520    0.0000 H       1  UNL1        0.0789
     68 H           9.1360   -2.0420    0.0000 H       1  UNL1        0.0659
     69 H           7.7331    0.3880    0.0000 H       1  UNL1        0.0670
     70 H          10.0021   -0.9220    0.0000 H       1  UNL1        0.0683
     71 H           9.4651    0.3880    0.0000 H       1  UNL1        0.1084
     72 H          13.2482   -2.0413    0.0000 H       1  UNL1        0.0647
     73 H          12.3952   -0.9113    0.0000 H       1  UNL1        0.0648
     74 H          15.2009   -0.9438    0.0000 H       1  UNL1        0.0658
     75 H          12.9472    0.3924    0.0000 H       1  UNL1        0.0683
     76 H          14.3523    0.5661    0.0000 H       1  UNL1        0.1084
     77 H           7.2656    0.7430    0.0000 H       1  UNL1        0.0725
     78 H           6.4685    0.7430    0.0000 H       1  UNL1        0.0725
     79 H          15.1166   -2.2278    0.0000 H       1  UNL1        0.0725
     80 H          15.9136   -2.2370    0.0000 H       1  UNL1        0.0725
     81 H           9.1360   -3.0420    0.0000 H       1  UNL1        0.2101
     82 H          10.8681   -1.4220    0.0000 H       1  UNL1        0.2102
     83 H          14.3104   -3.0536    0.0000 H       1  UNL1        0.2100
     84 H          12.0496   -2.3374    0.0000 H       1  UNL1        0.2100
     85 H          11.5394   -0.0214    0.0000 H       1  UNL1        0.2102
     86 H          12.0842    0.6624    0.0000 H       1  UNL1        0.0667
     87 H           8.8918    1.4865    0.0000 H       1  UNL1        0.0691
     88 H           5.7890   -2.6494    0.0000 H       1  UNL1        0.0493
     89 H           5.3905   -3.3396    0.0000 H       1  UNL1        0.0493
     90 H          10.3694    3.9570    0.0000 H       1  UNL1        0.0749
     91 H           3.8705   -0.7069    0.0000 H       1  UNL1        0.0493
     92 H           4.6675   -0.7069    0.0000 H       1  UNL1        0.0493
     93 H          14.6995    2.1322    0.0000 H       1  UNL1        0.0628
     94 H          13.3247    4.5783    0.0000 H       1  UNL1        0.0628
     95 H           8.5945    3.9671    0.0000 H       1  UNL1        0.2921
     96 H          18.1314   -0.6676    0.0000 H       1  UNL1        0.0689
     97 H          16.1117    2.9260    0.0000 H       1  UNL1        0.0654
     98 H          14.7370    5.3720    0.0000 H       1  UNL1        0.0654
     99 H          18.9773   -2.4175    0.0000 H       1  UNL1        0.0626
    100 H           5.1350   -5.3520    0.0000 H       1  UNL1        0.2951
    101 H           2.0000    0.0780    0.0000 H       1  UNL1        0.2951
    102 H          16.4689    5.3520    0.0000 H       1  UNL1        0.2921
    103 H          19.3345    0.0085    0.0000 H       1  UNL1        0.0661
    104 H          20.7092   -2.4376    0.0000 H       1  UNL1        0.0625
    105 H          22.1215   -1.6438    0.0000 H       1  UNL1        0.0655
    106 H          21.2916    1.4860    0.0000 H       1  UNL1        0.2923
    107 H          23.0048   -0.1540    0.0000 H       1  UNL1        0.2923
@<TRIPOS>UNITY_ATOM_ATTR
13 1
charge 1
@<TRIPOS>BOND
     1     1    27    1
     2     1    29    1
     3     2    32    1
     4     2    34    1
     5    25     3    1
     6     3    40    1
     7    29     4    1
     8     4    37    1
     9    26     5    1
    10     5    81    1
    11    28     6    1
    12     6    82    1
    13    34     7    1
    14     7    38    1
    15    30     8    1
    16     8    83    1
    17    31     9    1
    18     9    84    1
    19    33    10    1
    20    10    85    1
    21    11    35    1
    22    11    48    1
    23    12    36    1
    24    12    50    1
    25    13    42   ar
    26    13    43   ar
    27    14    40    2
    28    15    47    1
    29    15    95    1
    30    16    48    2
    31    17    50    2
    32    18    52    1
    33    18   100    1
    34    19    52    2
    35    20    58    1
    36    20   101    1
    37    21    59    1
    38    21   102    1
    39    22    58    2
    40    23    64    1
    41    23   106    1
    42    24    66    1
    43    24   107    1
    44    25    26    1
    45    25    27    1
    46    25    67    1
    47    26    28    1
    48    26    68    1
    49    27    35    1
    50    27    69    1
    51    28    29    1
    52    28    70    1
    53    29    71    1
    54    30    31    1
    55    30    32    1
    56    30    72    1
    57    31    33    1
    58    31    73    1
    59    32    36    1
    60    32    74    1
    61    33    34    1
    62    33    75    1
    63    34    76    1
    64    35    77    1
    65    35    78    1
    66    36    79    1
    67    36    80    1
    68    37    39   ar
    69    37    44   ar
    70    38    41   ar
    71    38    43   ar
    72    39    41   ar
    73    39    42   ar
    74    40    45    1
    75    41    86    1
    76    42    46   ar
    77    43    49    1
    78    44    47   ar
    79    44    87    1
    80    45    52    1
    81    45    88    1
    82    45    89    1
    83    46    47   ar
    84    46    90    1
    85    48    51    1
    86    49    53   ar
    87    49    54   ar
    88    50    55    1
    89    51    58    1
    90    51    91    1
    91    51    92    1
    92    53    56   ar
    93    53    93    1
    94    54    57   ar
    95    54    94    1
    96    55    60    2
    97    55    96    1
    98    56    59   ar
    99    56    97    1
   100    57    59   ar
   101    57    98    1
   102    60    61    1
   103    60    99    1
   104    61    62   ar
   105    61    63   ar
   106    62    64   ar
   107    62   103    1
   108    63    65   ar
   109    63   104    1
   110    64    66   ar
   111    65    66   ar
   112    65   105    1
