@<TRIPOS>MOLECULE
IMPHY001428
 30 31 0 0 0
SMALL
GASTEIGER

@<TRIPOS>ATOM
      1 O           6.3580   -0.3970    0.0000 O.3     1  UNL1       -0.4779
      2 O           4.5981   -1.3623    0.0000 O.3     1  UNL1       -0.5028
      3 O           2.8660   -1.3623    0.0000 O.2     1  UNL1       -0.2922
      4 C           7.2641    0.1169    0.0000 C.3     1  UNL1        0.1237
      5 C           7.2641    1.1585    0.0000 C.2     1  UNL1       -0.0409
      6 C           5.4641    0.1377    0.0000 C.ar    1  UNL1        0.1707
      7 C           5.4641    1.1377    0.0000 C.ar    1  UNL1        0.0202
      8 C           8.2641    0.1130    0.0000 C.3     1  UNL1       -0.0215
      9 C           7.7608   -0.7511    0.0000 C.3     1  UNL1       -0.0215
     10 C           6.3580    1.6723    0.0000 C.2     1  UNL1       -0.0512
     11 C           4.5981   -0.3623    0.0000 C.ar    1  UNL1        0.1698
     12 C           4.5981    1.6377    0.0000 C.ar    1  UNL1       -0.0502
     13 C           3.7320    0.1377    0.0000 C.ar    1  UNL1        0.0622
     14 C           3.7320    1.1377    0.0000 C.ar    1  UNL1       -0.0470
     15 C           2.8660   -0.3623    0.0000 C.2     1  UNL1        0.1637
     16 C           2.0000    0.1377    0.0000 C.3     1  UNL1       -0.0013
     17 H           7.7998    1.4706    0.0000 H       1  UNL1        0.0611
     18 H           8.2617   -0.5070    0.0000 H       1  UNL1        0.0271
     19 H           8.8841    0.1106    0.0000 H       1  UNL1        0.0271
     20 H           8.2665    0.7330    0.0000 H       1  UNL1        0.0271
     21 H           7.2226   -1.0590    0.0000 H       1  UNL1        0.0271
     22 H           8.0687   -1.2892    0.0000 H       1  UNL1        0.0271
     23 H           8.2989   -0.4432    0.0000 H       1  UNL1        0.0271
     24 H           6.3509    2.2923    0.0000 H       1  UNL1        0.0623
     25 H           4.5981    2.2577    0.0000 H       1  UNL1        0.0625
     26 H           3.1951    1.4477    0.0000 H       1  UNL1        0.0626
     27 H           5.1350   -1.6723    0.0000 H       1  UNL1        0.2923
     28 H           2.3100    0.6746    0.0000 H       1  UNL1        0.0309
     29 H           1.4631    0.4477    0.0000 H       1  UNL1        0.0309
     30 H           1.6900   -0.3993    0.0000 H       1  UNL1        0.0309
@<TRIPOS>BOND
     1     1     4    1
     2     1     6    1
     3     2    11    1
     4     2    27    1
     5     3    15    2
     6     4     5    1
     7     4     8    1
     8     4     9    1
     9     5    10    2
    10     5    17    1
    11     6     7   ar
    12     6    11   ar
    13     7    10    1
    14     7    12   ar
    15     8    18    1
    16     8    19    1
    17     8    20    1
    18     9    21    1
    19     9    22    1
    20     9    23    1
    21    10    24    1
    22    11    13   ar
    23    12    14   ar
    24    12    25    1
    25    13    14   ar
    26    13    15    1
    27    14    26    1
    28    15    16    1
    29    16    28    1
    30    16    29    1
    31    16    30    1
