@<TRIPOS>MOLECULE
IMPHY017525
 25 26 0 0 0
SMALL
GASTEIGER

@<TRIPOS>ATOM
      1 O           3.3660   -1.4330    0.0000 O.3     1  UNL1       -0.3627
      2 C           3.8660   -0.5670    0.0000 C.3     1  UNL1        0.1225
      3 C           3.0000   -0.0670    0.0000 C.3     1  UNL1        0.0039
      4 C           4.3660   -1.4330    0.0000 C.3     1  UNL1        0.0826
      5 C           3.0000    0.9330    0.0000 C.3     1  UNL1       -0.0263
      6 C           4.7320   -0.0670    0.0000 C.2     1  UNL1       -0.0205
      7 C           2.0000   -0.0670    0.0000 C.3     1  UNL1       -0.0565
      8 C           2.5000   -0.9330    0.0000 C.3     1  UNL1       -0.0565
      9 C           3.8660    1.4330    0.0000 C.2     1  UNL1       -0.0831
     10 C           4.7320    0.9330    0.0000 C.2     1  UNL1       -0.0602
     11 C           5.5981   -0.5670    0.0000 C.2     1  UNL1       -0.0927
     12 H           4.4737   -2.0436    0.0000 H       1  UNL1        0.0593
     13 H           4.9486   -1.2210    0.0000 H       1  UNL1        0.0593
     14 H           2.7880    1.5156    0.0000 H       1  UNL1        0.0314
     15 H           2.3894    0.8254    0.0000 H       1  UNL1        0.0314
     16 H           2.0000    0.5530    0.0000 H       1  UNL1        0.0236
     17 H           1.3800   -0.0670    0.0000 H       1  UNL1        0.0236
     18 H           2.0000   -0.6870    0.0000 H       1  UNL1        0.0236
     19 H           1.9631   -0.6230    0.0000 H       1  UNL1        0.0236
     20 H           2.1900   -1.4700    0.0000 H       1  UNL1        0.0236
     21 H           3.0369   -1.2430    0.0000 H       1  UNL1        0.0236
     22 H           3.8660    2.0530    0.0000 H       1  UNL1        0.0572
     23 H           5.2690    1.2430    0.0000 H       1  UNL1        0.0618
     24 H           5.5981   -1.1870    0.0000 H       1  UNL1        0.0538
     25 H           6.1350   -0.2570    0.0000 H       1  UNL1        0.0538
@<TRIPOS>BOND
     1     1     2    1
     2     1     4    1
     3     2     3    1
     4     2     4    1
     5     2     6    1
     6     3     5    1
     7     3     7    1
     8     3     8    1
     9     4    12    1
    10     4    13    1
    11     5     9    1
    12     5    14    1
    13     5    15    1
    14     6    10    1
    15     6    11    2
    16     7    16    1
    17     7    17    1
    18     7    18    1
    19     8    19    1
    20     8    20    1
    21     8    21    1
    22     9    10    2
    23     9    22    1
    24    10    23    1
    25    11    24    1
    26    11    25    1
