@<TRIPOS>MOLECULE
IMPHY004866
 23 24 0 0 0
SMALL
GASTEIGER

@<TRIPOS>ATOM
      1 O           3.7320    2.0204    0.0000 O.2     1  UNL1       -0.5058
      2 O           5.4804   -2.0142    0.0000 O.3     1  UNL1       -0.5060
      3 O           3.7320   -1.9796    0.0000 O.2     1  UNL1       -0.2830
      4 O           2.0000   -0.9796    0.0000 O.2     1  UNL1       -0.2834
      5 C           4.5981    0.5204    0.0000 C.ar    1  UNL1        0.0312
      6 C           4.5981   -0.4796    0.0000 C.ar    1  UNL1        0.0775
      7 C           3.7320    1.0204    0.0000 C.2     1  UNL1        0.1314
      8 C           2.8660    0.5204    0.0000 C.2     1  UNL1        0.0420
      9 C           3.7320   -0.9796    0.0000 C.2     1  UNL1        0.2369
     10 C           2.8660   -0.4796    0.0000 C.2     1  UNL1        0.2323
     11 C           5.4920   -1.0143    0.0000 C.ar    1  UNL1        0.1285
     12 C           5.4920    1.0550    0.0000 C.ar    1  UNL1       -0.0502
     13 C           2.0000    1.0204    0.0000 C.3     1  UNL1       -0.0324
     14 C           6.3981   -0.5004    0.0000 C.ar    1  UNL1       -0.0194
     15 C           6.3981    0.5412    0.0000 C.ar    1  UNL1       -0.0576
     16 H           5.4848    1.6750    0.0000 H       1  UNL1        0.0625
     17 H           2.3100    1.5573    0.0000 H       1  UNL1        0.0280
     18 H           1.4631    1.3304    0.0000 H       1  UNL1        0.0280
     19 H           1.6900    0.4835    0.0000 H       1  UNL1        0.0280
     20 H           6.9338   -0.8125    0.0000 H       1  UNL1        0.0654
     21 H           6.9338    0.8533    0.0000 H       1  UNL1        0.0619
     22 H           3.1951    2.3304    0.0000 H       1  UNL1        0.2922
     23 H           6.0138   -2.3304    0.0000 H       1  UNL1        0.2922
@<TRIPOS>BOND
     1     1     7    1
     2     1    22    1
     3     2    11    1
     4     2    23    1
     5     3     9    2
     6     4    10    2
     7     5     6   ar
     8     5     7    1
     9     5    12   ar
    10     6     9    1
    11     6    11   ar
    12     7     8    2
    13     8    10    1
    14     8    13    1
    15     9    10    1
    16    11    14   ar
    17    12    15   ar
    18    12    16    1
    19    13    17    1
    20    13    18    1
    21    13    19    1
    22    14    15   ar
    23    14    20    1
    24    15    21    1
