@<TRIPOS>MOLECULE
IMPHY001038
 31 32 0 0 0
SMALL
GASTEIGER

@<TRIPOS>ATOM
      1 O           6.3301   -1.8450    0.0000 O.3     1  UNL1       -0.4913
      2 O           2.8660   -1.8450    0.0000 O.3     1  UNL1       -0.4913
      3 O           4.5981   -2.8450    0.0000 O.3     1  UNL1       -0.5009
      4 C           4.5981    0.1550    0.0000 C.ar    1  UNL1       -0.0107
      5 C           4.5981    1.1550    0.0000 C.ar    1  UNL1       -0.0177
      6 C           3.7320   -0.3450    0.0000 C.ar    1  UNL1       -0.0084
      7 C           5.4641   -0.3450    0.0000 C.ar    1  UNL1       -0.0084
      8 C           5.4641   -1.3450    0.0000 C.ar    1  UNL1        0.1656
      9 C           3.7320   -1.3450    0.0000 C.ar    1  UNL1        0.1656
     10 C           4.5981   -1.8450    0.0000 C.ar    1  UNL1        0.2010
     11 C           5.4641    1.6550    0.0000 C.ar    1  UNL1       -0.0540
     12 C           3.7320    1.6550    0.0000 C.ar    1  UNL1       -0.0540
     13 C           5.4641    2.6550    0.0000 C.ar    1  UNL1       -0.0612
     14 C           3.7320    2.6550    0.0000 C.ar    1  UNL1       -0.0612
     15 C           4.5981    3.1550    0.0000 C.ar    1  UNL1       -0.0617
     16 C           7.1962   -1.3450    0.0000 C.3     1  UNL1        0.0790
     17 C           2.0000   -1.3450    0.0000 C.3     1  UNL1        0.0790
     18 H           3.1951   -0.0350    0.0000 H       1  UNL1        0.0661
     19 H           6.0010   -0.0350    0.0000 H       1  UNL1        0.0661
     20 H           6.0010    1.3450    0.0000 H       1  UNL1        0.0624
     21 H           3.1951    1.3450    0.0000 H       1  UNL1        0.0624
     22 H           6.0010    2.9650    0.0000 H       1  UNL1        0.0618
     23 H           3.1951    2.9650    0.0000 H       1  UNL1        0.0618
     24 H           4.5981    3.7750    0.0000 H       1  UNL1        0.0618
     25 H           4.0611   -3.1550    0.0000 H       1  UNL1        0.2924
     26 H           7.5062   -1.8819    0.0000 H       1  UNL1        0.0660
     27 H           7.7331   -1.0350    0.0000 H       1  UNL1        0.0660
     28 H           6.8862   -0.8081    0.0000 H       1  UNL1        0.0660
     29 H           2.3100   -0.8081    0.0000 H       1  UNL1        0.0660
     30 H           1.4631   -1.0350    0.0000 H       1  UNL1        0.0660
     31 H           1.6900   -1.8819    0.0000 H       1  UNL1        0.0660
@<TRIPOS>BOND
     1     1     8    1
     2     1    16    1
     3     2     9    1
     4     2    17    1
     5     3    10    1
     6     3    25    1
     7     4     5    1
     8     4     6   ar
     9     4     7   ar
    10     5    11   ar
    11     5    12   ar
    12     6     9   ar
    13     6    18    1
    14     7     8   ar
    15     7    19    1
    16     8    10   ar
    17     9    10   ar
    18    11    13   ar
    19    11    20    1
    20    12    14   ar
    21    12    21    1
    22    13    15   ar
    23    13    22    1
    24    14    15   ar
    25    14    23    1
    26    15    24    1
    27    16    26    1
    28    16    27    1
    29    16    28    1
    30    17    29    1
    31    17    30    1
    32    17    31    1
