@<TRIPOS>MOLECULE
IMPHY012357
 44 46 0 0 0
SMALL
GASTEIGER

@<TRIPOS>ATOM
      1 O           6.2050    0.4091    0.0000 O.3     1  UNL1       -0.4608
      2 O           5.6126   -1.2185    0.0000 O.2     1  UNL1       -0.2501
      3 O           9.0241   -0.6170    0.0000 O.3     1  UNL1       -0.3939
      4 N           3.6930    3.0061    0.0000 N.3     1  UNL1       -0.2992
      5 C           3.2152    1.0576    0.0000 C.3     1  UNL1        0.0138
      6 C           2.9564    2.0235    0.0000 C.3     1  UNL1        0.0138
      7 C           1.8163    0.5488    0.0000 C.3     1  UNL1       -0.0358
      8 C           1.5575    1.5147    0.0000 C.3     1  UNL1       -0.0358
      9 C           4.4363    0.1919    0.0000 C.3     1  UNL1        0.0000
     10 C           4.9897    1.7124    0.0000 C.3     1  UNL1        0.0000
     11 C           5.2653    0.7511    0.0000 C.3     1  UNL1        0.1059
     12 C           4.1931    3.8722    0.0000 C.3     1  UNL1       -0.0122
     13 C           6.3787   -0.5757    0.0000 C.2     1  UNL1        0.3171
     14 C           7.3184   -0.9177    0.0000 C.3     1  UNL1        0.1044
     15 C           7.4920   -1.9025    0.0000 C.ar    1  UNL1       -0.0315
     16 C           8.0844   -0.2749    0.0000 C.3     1  UNL1        0.0612
     17 C           8.4317   -2.2446    0.0000 C.ar    1  UNL1       -0.0577
     18 C           6.7260   -2.5453    0.0000 C.ar    1  UNL1       -0.0577
     19 C           8.6053   -3.2294    0.0000 C.ar    1  UNL1       -0.0615
     20 C           6.8996   -3.5301    0.0000 C.ar    1  UNL1       -0.0615
     21 C           7.8393   -3.8722    0.0000 C.ar    1  UNL1       -0.0617
     22 H           3.4352    0.2366    0.0000 H       1  UNL1        0.0464
     23 H           2.7364    2.8446    0.0000 H       1  UNL1        0.0464
     24 H           2.0112   -0.0398    0.0000 H       1  UNL1        0.0281
     25 H           1.2224    0.3710    0.0000 H       1  UNL1        0.0281
     26 H           0.9635    1.3369    0.0000 H       1  UNL1        0.0281
     27 H           1.3626    2.1032    0.0000 H       1  UNL1        0.0281
     28 H           4.8421   -0.2768    0.0000 H       1  UNL1        0.0316
     29 H           4.0196   -0.2672    0.0000 H       1  UNL1        0.0316
     30 H           4.9947    2.3324    0.0000 H       1  UNL1        0.0316
     31 H           5.6040    1.7962    0.0000 H       1  UNL1        0.0316
     32 H           5.7188    1.1740    0.0000 H       1  UNL1        0.0735
     33 H           3.6561    4.1822    0.0000 H       1  UNL1        0.0391
     34 H           4.5030    4.4091    0.0000 H       1  UNL1        0.0391
     35 H           4.7300    3.5622    0.0000 H       1  UNL1        0.0391
     36 H           7.2107   -0.3071    0.0000 H       1  UNL1        0.0485
     37 H           7.6094    0.1236    0.0000 H       1  UNL1        0.0568
     38 H           8.3944    0.2620    0.0000 H       1  UNL1        0.0568
     39 H           8.9066   -1.8460    0.0000 H       1  UNL1        0.0621
     40 H           6.1433   -2.3333    0.0000 H       1  UNL1        0.0621
     41 H           9.4990   -0.2184    0.0000 H       1  UNL1        0.2094
     42 H           9.1880   -3.4414    0.0000 H       1  UNL1        0.0618
     43 H           6.4246   -3.9287    0.0000 H       1  UNL1        0.0618
     44 H           7.9470   -4.4827    0.0000 H       1  UNL1        0.0618
@<TRIPOS>BOND
     1     1    11    1
     2     1    13    1
     3     2    13    2
     4     3    16    1
     5     3    41    1
     6     4     5    1
     7     4     6    1
     8     4    12    1
     9     5     7    1
    10     5     9    1
    11     5    22    1
    12     6     8    1
    13     6    10    1
    14     6    23    1
    15     7     8    1
    16     7    24    1
    17     7    25    1
    18     8    26    1
    19     8    27    1
    20     9    11    1
    21     9    28    1
    22     9    29    1
    23    10    11    1
    24    10    30    1
    25    10    31    1
    26    11    32    1
    27    12    33    1
    28    12    34    1
    29    12    35    1
    30    13    14    1
    31    14    15    1
    32    14    16    1
    33    14    36    1
    34    15    17   ar
    35    15    18   ar
    36    16    37    1
    37    16    38    1
    38    17    19   ar
    39    17    39    1
    40    18    20   ar
    41    18    40    1
    42    19    21   ar
    43    19    42    1
    44    20    21   ar
    45    20    43    1
    46    21    44    1
