@<TRIPOS>MOLECULE
IMPHY017866
 37 37 0 0 0
SMALL
GASTEIGER

@<TRIPOS>ATOM
      1 O           4.5981    0.0000    0.0000 O.3     1  UNL1       -0.4250
      2 O           6.3301    0.0000    0.0000 O.2     1  UNL1       -0.2501
      3 C           5.4641    1.5000    0.0000 C.3     1  UNL1        0.0538
      4 C           6.3301    2.0000    0.0000 C.3     1  UNL1       -0.0432
      5 C           4.5981    2.0000    0.0000 C.3     1  UNL1       -0.0523
      6 C           5.4641    0.5000    0.0000 C.2     1  UNL1        0.3152
      7 C           4.5981   -1.0000    0.0000 C.ar    1  UNL1        0.1392
      8 C           6.3301    3.0000    0.0000 C.3     1  UNL1       -0.0645
      9 C           3.7320   -1.5000    0.0000 C.ar    1  UNL1        0.0197
     10 C           5.4641   -1.5000    0.0000 C.ar    1  UNL1       -0.0157
     11 C           5.4641   -2.5000    0.0000 C.ar    1  UNL1       -0.0469
     12 C           3.7320   -2.5000    0.0000 C.ar    1  UNL1       -0.0506
     13 C           2.8660   -1.0000    0.0000 C.2     1  UNL1       -0.0469
     14 C           4.5981   -3.0000    0.0000 C.ar    1  UNL1       -0.0580
     15 C           6.3301   -3.0000    0.0000 C.3     1  UNL1       -0.0396
     16 C           2.0000   -1.5000    0.0000 C.3     1  UNL1       -0.0396
     17 C           2.8660    0.0000    0.0000 C.2     1  UNL1       -0.0951
     18 H           5.4641    2.1200    0.0000 H       1  UNL1        0.0411
     19 H           6.5422    1.4174    0.0000 H       1  UNL1        0.0270
     20 H           6.9407    2.1077    0.0000 H       1  UNL1        0.0270
     21 H           4.9081    2.5369    0.0000 H       1  UNL1        0.0238
     22 H           4.0611    2.3100    0.0000 H       1  UNL1        0.0238
     23 H           4.2881    1.4631    0.0000 H       1  UNL1        0.0238
     24 H           6.9501    3.0000    0.0000 H       1  UNL1        0.0230
     25 H           6.3301    3.6200    0.0000 H       1  UNL1        0.0230
     26 H           5.7101    3.0000    0.0000 H       1  UNL1        0.0230
     27 H           6.0010   -1.1900    0.0000 H       1  UNL1        0.0657
     28 H           3.1951   -2.8100    0.0000 H       1  UNL1        0.0625
     29 H           4.5981   -3.6200    0.0000 H       1  UNL1        0.0620
     30 H           6.0201   -3.5369    0.0000 H       1  UNL1        0.0278
     31 H           6.8671   -3.3100    0.0000 H       1  UNL1        0.0278
     32 H           6.6401   -2.4631    0.0000 H       1  UNL1        0.0278
     33 H           1.6900   -0.9631    0.0000 H       1  UNL1        0.0278
     34 H           1.4631   -1.8100    0.0000 H       1  UNL1        0.0278
     35 H           2.3100   -2.0369    0.0000 H       1  UNL1        0.0278
     36 H           3.4030    0.3100    0.0000 H       1  UNL1        0.0538
     37 H           2.3291    0.3100    0.0000 H       1  UNL1        0.0538
@<TRIPOS>BOND
     1     1     6    1
     2     1     7    1
     3     2     6    2
     4     3     4    1
     5     3     5    1
     6     3     6    1
     7     3    18    1
     8     4     8    1
     9     4    19    1
    10     4    20    1
    11     5    21    1
    12     5    22    1
    13     5    23    1
    14     7     9   ar
    15     7    10   ar
    16     8    24    1
    17     8    25    1
    18     8    26    1
    19     9    12   ar
    20     9    13    1
    21    10    11   ar
    22    10    27    1
    23    11    14   ar
    24    11    15    1
    25    12    14   ar
    26    12    28    1
    27    13    16    1
    28    13    17    2
    29    14    29    1
    30    15    30    1
    31    15    31    1
    32    15    32    1
    33    16    33    1
    34    16    34    1
    35    16    35    1
    36    17    36    1
    37    17    37    1
