@<TRIPOS>MOLECULE
IMPHY016526
 26 26 0 0 0
SMALL
GASTEIGER

@<TRIPOS>ATOM
      1 O           2.8660   -0.2500    0.0000 O.3     1  UNL1       -0.4942
      2 O           6.3301   -0.2500    0.0000 O.3     1  UNL1       -0.4942
      3 O           5.4641    1.2500    0.0000 O.3     1  UNL1       -0.4643
      4 O           3.7320    1.2500    0.0000 O.2     1  UNL1       -0.2447
      5 C           4.5981   -0.2500    0.0000 C.ar    1  UNL1        0.1419
      6 C           3.7320   -0.7500    0.0000 C.ar    1  UNL1        0.1376
      7 C           5.4641   -0.7500    0.0000 C.ar    1  UNL1        0.1376
      8 C           3.7320   -1.7500    0.0000 C.ar    1  UNL1       -0.0189
      9 C           5.4641   -1.7500    0.0000 C.ar    1  UNL1       -0.0189
     10 C           4.5981   -2.2500    0.0000 C.ar    1  UNL1       -0.0548
     11 C           4.5981    0.7500    0.0000 C.2     1  UNL1        0.3461
     12 C           2.0000   -0.7500    0.0000 C.3     1  UNL1        0.0788
     13 C           7.1962   -0.7500    0.0000 C.3     1  UNL1        0.0788
     14 C           5.4641    2.2500    0.0000 C.3     1  UNL1        0.0820
     15 H           3.1951   -2.0600    0.0000 H       1  UNL1        0.0654
     16 H           6.0010   -2.0600    0.0000 H       1  UNL1        0.0654
     17 H           4.5981   -2.8700    0.0000 H       1  UNL1        0.0620
     18 H           1.6900   -0.2131    0.0000 H       1  UNL1        0.0660
     19 H           1.4631   -1.0600    0.0000 H       1  UNL1        0.0660
     20 H           2.3100   -1.2869    0.0000 H       1  UNL1        0.0660
     21 H           6.8862   -1.2869    0.0000 H       1  UNL1        0.0660
     22 H           7.7331   -1.0600    0.0000 H       1  UNL1        0.0660
     23 H           7.5062   -0.2131    0.0000 H       1  UNL1        0.0660
     24 H           6.0841    2.2500    0.0000 H       1  UNL1        0.0661
     25 H           5.4641    2.8700    0.0000 H       1  UNL1        0.0661
     26 H           4.8441    2.2500    0.0000 H       1  UNL1        0.0661
@<TRIPOS>BOND
     1     1     6    1
     2     1    12    1
     3     2     7    1
     4     2    13    1
     5     3    11    1
     6     3    14    1
     7     4    11    2
     8     5     6   ar
     9     5     7   ar
    10     5    11    1
    11     6     8   ar
    12     7     9   ar
    13     8    10   ar
    14     8    15    1
    15     9    10   ar
    16     9    16    1
    17    10    17    1
    18    12    18    1
    19    12    19    1
    20    12    20    1
    21    13    21    1
    22    13    22    1
    23    13    23    1
    24    14    24    1
    25    14    25    1
    26    14    26    1
