@<TRIPOS>MOLECULE
IMPHY012025
 19 18 0 0 0
SMALL
GASTEIGER

@<TRIPOS>ATOM
      1 P           3.4030   -0.4720    0.0000 P.3     1  UNL1        0.4724
      2 O           4.2690    0.0280    0.0000 O.3     1  UNL1       -0.2841
      3 O           6.0010    1.0280    0.0000 O.3     1  UNL1       -0.3872
      4 O           7.7331    0.0280    0.0000 O.3     1  UNL1       -0.3924
      5 O           2.5369   -0.9720    0.0000 O.3     1  UNL1       -0.3026
      6 O           2.9030    0.3940    0.0000 O.3     1  UNL1       -0.3026
      7 O           3.9030   -1.3380    0.0000 O.2     1  UNL1       -0.2275
      8 C           6.0010    0.0280    0.0000 C.3     1  UNL1        0.1020
      9 C           5.1350   -0.4720    0.0000 C.3     1  UNL1        0.0871
     10 C           6.8671   -0.4720    0.0000 C.3     1  UNL1        0.0723
     11 H           6.5380    0.3380    0.0000 H       1  UNL1        0.0639
     12 H           4.7365   -0.9469    0.0000 H       1  UNL1        0.0592
     13 H           5.5335   -0.9469    0.0000 H       1  UNL1        0.0592
     14 H           6.4685   -0.9469    0.0000 H       1  UNL1        0.0583
     15 H           7.2656   -0.9469    0.0000 H       1  UNL1        0.0583
     16 H           6.5380    1.3380    0.0000 H       1  UNL1        0.2100
     17 H           8.2700   -0.2820    0.0000 H       1  UNL1        0.2095
     18 H           2.0000   -0.6620    0.0000 H       1  UNL1        0.2220
     19 H           3.2130    0.9310    0.0000 H       1  UNL1        0.2220
@<TRIPOS>BOND
     1     1     2    1
     2     1     5    1
     3     1     6    1
     4     1     7    2
     5     2     9    1
     6     3     8    1
     7     3    16    1
     8     4    10    1
     9     4    17    1
    10     5    18    1
    11     6    19    1
    12     8     9    1
    13     8    10    1
    14     8    11    1
    15     9    12    1
    16     9    13    1
    17    10    14    1
    18    10    15    1
