@<TRIPOS>MOLECULE
IMPHY002165
 115 121 0 0 0
SMALL
GASTEIGER

@<TRIPOS>ATOM
      1 O          18.3182    0.9935    0.0000 O.3     1  UNL1       -0.3877
      2 O          20.5403   -2.4766    0.0000 O.3     1  UNL1       -0.3918
      3 O          12.9292    2.0666    0.0000 O.3     1  UNL1       -0.3477
      4 O          11.1972    2.0666    0.0000 O.3     1  UNL1       -0.3456
      5 O           9.4651    0.0666    0.0000 O.3     1  UNL1       -0.3429
      6 O          11.1972   -0.9334    0.0000 O.3     1  UNL1       -0.3890
      7 O           8.5991    1.5666    0.0000 O.3     1  UNL1       -0.3456
      8 O           6.0010    2.0666    0.0000 O.3     1  UNL1       -0.3429
      9 O           6.0010    0.0666    0.0000 O.3     1  UNL1       -0.3890
     10 O           5.1350    0.5666    0.0000 O.3     1  UNL1       -0.3456
     11 O           2.5369    2.0666    0.0000 O.3     1  UNL1       -0.3890
     12 O           2.5369    0.0666    0.0000 O.3     1  UNL1       -0.3867
     13 C          18.3105   -1.0065    0.0000 C.3     1  UNL1        0.0022
     14 C          18.3144   -0.0065    0.0000 C.3     1  UNL1        0.0751
     15 C          17.4503    0.4968    0.0000 C.3     1  UNL1       -0.0046
     16 C          16.5823    0.0002    0.0000 C.3     1  UNL1       -0.0262
     17 C          19.2556   -1.3149    0.0000 C.3     1  UNL1       -0.0071
     18 C          17.4426   -1.5031    0.0000 C.3     1  UNL1       -0.0444
     19 C          15.6743    0.5105    0.0000 C.3     1  UNL1       -0.0077
     20 C          19.2618    0.2946    0.0000 C.3     1  UNL1       -0.0228
     21 C          16.5785   -0.9998    0.0000 C.3     1  UNL1       -0.0485
     22 C          19.8423   -0.5124    0.0000 C.3     1  UNL1       -0.0447
     23 C          17.4704    1.5383    0.0000 C.3     1  UNL1       -0.0287
     24 C          18.3067   -2.0065    0.0000 C.3     1  UNL1       -0.0566
     25 C          15.6703    1.5522    0.0000 C.2     1  UNL1       -0.0648
     26 C          14.7453   -0.0500    0.0000 C.3     1  UNL1       -0.0413
     27 C          19.5626   -2.2666    0.0000 C.3     1  UNL1        0.0558
     28 C          16.5744    2.0695    0.0000 C.2     1  UNL1       -0.0838
     29 C          15.6782   -0.4895    0.0000 C.3     1  UNL1       -0.0556
     30 C          14.7370    2.1055    0.0000 C.3     1  UNL1       -0.0047
     31 C          13.7994    0.4816    0.0000 C.3     1  UNL1       -0.0254
     32 C          13.7953    1.5666    0.0000 C.3     1  UNL1        0.0654
     33 C          18.8918   -3.0083    0.0000 C.3     1  UNL1       -0.0387
     34 C          12.0632    1.5666    0.0000 C.3     1  UNL1        0.1624
     35 C          12.0632    0.5666    0.0000 C.3     1  UNL1        0.0270
     36 C          11.1972    0.0666    0.0000 C.3     1  UNL1        0.0884
     37 C          10.3312    1.5666    0.0000 C.3     1  UNL1        0.0875
     38 C          10.3312    0.5666    0.0000 C.3     1  UNL1        0.1134
     39 C           9.4651    2.0666    0.0000 C.3     1  UNL1       -0.0361
     40 C           8.5991    0.5666    0.0000 C.3     1  UNL1        0.1626
     41 C           7.7331    0.0666    0.0000 C.3     1  UNL1        0.0270
     42 C           6.8671    0.5666    0.0000 C.3     1  UNL1        0.0884
     43 C           6.8671    1.5666    0.0000 C.3     1  UNL1        0.1134
     44 C           7.7331    2.0666    0.0000 C.3     1  UNL1        0.0875
     45 C           7.7331    3.0666    0.0000 C.3     1  UNL1       -0.0361
     46 C           5.1350    1.5666    0.0000 C.3     1  UNL1        0.1626
     47 C           4.2690    2.0666    0.0000 C.3     1  UNL1        0.0270
     48 C           3.4030    1.5666    0.0000 C.3     1  UNL1        0.0881
     49 C           3.4030    0.5666    0.0000 C.3     1  UNL1        0.1070
     50 C           4.2690    0.0666    0.0000 C.3     1  UNL1        0.0871
     51 C           4.2690   -0.9334    0.0000 C.3     1  UNL1       -0.0361
     52 H          18.1913    0.9133    0.0000 H       1  UNL1        0.0335
     53 H          17.3168   -0.4276    0.0000 H       1  UNL1        0.0313
     54 H          20.0947   -1.4500    0.0000 H       1  UNL1        0.0332
     55 H          17.0422   -1.9766    0.0000 H       1  UNL1        0.0272
     56 H          17.8393   -1.9796    0.0000 H       1  UNL1        0.0272
     57 H          19.8003    0.6017    0.0000 H       1  UNL1        0.0293
     58 H          19.0129    0.8625    0.0000 H       1  UNL1        0.0293
     59 H          15.9683   -0.8898    0.0000 H       1  UNL1        0.0268
     60 H          16.3642   -1.5816    0.0000 H       1  UNL1        0.0268
     61 H          20.3015   -0.9289    0.0000 H       1  UNL1        0.0270
     62 H          20.3047   -0.0994    0.0000 H       1  UNL1        0.0270
     63 H          18.0791    1.4204    0.0000 H       1  UNL1        0.0311
     64 H          17.6906    2.1178    0.0000 H       1  UNL1        0.0311
     65 H          17.6867   -2.0041    0.0000 H       1  UNL1        0.0236
     66 H          18.3043   -2.6265    0.0000 H       1  UNL1        0.0236
     67 H          18.9267   -2.0089    0.0000 H       1  UNL1        0.0236
     68 H          14.3535   -0.5305    0.0000 H       1  UNL1        0.0274
     69 H          15.1517   -0.5182    0.0000 H       1  UNL1        0.0274
     70 H          19.7529   -2.8566    0.0000 H       1  UNL1        0.0593
     71 H          16.5791    2.6895    0.0000 H       1  UNL1        0.0572
     72 H          18.8564    1.3014    0.0000 H       1  UNL1        0.2102
     73 H          15.0582   -0.4918    0.0000 H       1  UNL1        0.0238
     74 H          15.6805   -1.1094    0.0000 H       1  UNL1        0.0238
     75 H          16.2981   -0.4871    0.0000 H       1  UNL1        0.0238
     76 H          15.1398    2.5768    0.0000 H       1  UNL1        0.0335
     77 H          14.3415    2.5830    0.0000 H       1  UNL1        0.0335
     78 H          13.1882    0.5854    0.0000 H       1  UNL1        0.0290
     79 H          13.5926   -0.1029    0.0000 H       1  UNL1        0.0290
     80 H          13.7965    2.1866    0.0000 H       1  UNL1        0.0600
     81 H          18.4320   -2.5924    0.0000 H       1  UNL1        0.0255
     82 H          18.4760   -3.4682    0.0000 H       1  UNL1        0.0255
     83 H          19.3517   -3.4241    0.0000 H       1  UNL1        0.0255
     84 H          20.7306   -3.0666    0.0000 H       1  UNL1        0.2098
     85 H          12.6002    1.2566    0.0000 H       1  UNL1        0.0910
     86 H          12.2753   -0.0160    0.0000 H       1  UNL1        0.0340
     87 H          12.6738    0.6743    0.0000 H       1  UNL1        0.0340
     88 H          11.7341   -0.2434    0.0000 H       1  UNL1        0.0622
     89 H          10.3312    2.1866    0.0000 H       1  UNL1        0.0621
     90 H           9.7942    0.8766    0.0000 H       1  UNL1        0.0649
     91 H           9.7751    2.6035    0.0000 H       1  UNL1        0.0255
     92 H           8.9282    2.3766    0.0000 H       1  UNL1        0.0255
     93 H           9.1551    1.5297    0.0000 H       1  UNL1        0.0255
     94 H          11.7341   -1.2434    0.0000 H       1  UNL1        0.2099
     95 H           8.5991   -0.0534    0.0000 H       1  UNL1        0.0910
     96 H           7.3346   -0.4083    0.0000 H       1  UNL1        0.0340
     97 H           8.1316   -0.4083    0.0000 H       1  UNL1        0.0340
     98 H           6.3301    0.8766    0.0000 H       1  UNL1        0.0622
     99 H           6.8671    2.1866    0.0000 H       1  UNL1        0.0649
    100 H           8.2700    2.3766    0.0000 H       1  UNL1        0.0621
    101 H           8.3531    3.0666    0.0000 H       1  UNL1        0.0255
    102 H           7.7331    3.6866    0.0000 H       1  UNL1        0.0255
    103 H           7.1131    3.0666    0.0000 H       1  UNL1        0.0255
    104 H           5.1350    2.1866    0.0000 H       1  UNL1        0.0910
    105 H           6.0010   -0.5534    0.0000 H       1  UNL1        0.2099
    106 H           4.6675    2.5416    0.0000 H       1  UNL1        0.0340
    107 H           3.8705    2.5416    0.0000 H       1  UNL1        0.0340
    108 H           3.4030    2.1866    0.0000 H       1  UNL1        0.0621
    109 H           3.4030   -0.0534    0.0000 H       1  UNL1        0.0645
    110 H           4.8059   -0.2434    0.0000 H       1  UNL1        0.0621
    111 H           3.6490   -0.9334    0.0000 H       1  UNL1        0.0255
    112 H           4.2690   -1.5534    0.0000 H       1  UNL1        0.0255
    113 H           4.8890   -0.9334    0.0000 H       1  UNL1        0.0255
    114 H           2.5369    2.6866    0.0000 H       1  UNL1        0.2099
    115 H           2.0000    0.3766    0.0000 H       1  UNL1        0.2100
@<TRIPOS>BOND
     1    14     1    1
     2     1    72    1
     3    27     2    1
     4     2    84    1
     5    32     3    1
     6    34     3    1
     7     4    34    1
     8     4    37    1
     9    38     5    1
    10    40     5    1
    11    36     6    1
    12     6    94    1
    13     7    40    1
    14     7    44    1
    15    43     8    1
    16    46     8    1
    17    42     9    1
    18     9   105    1
    19    10    46    1
    20    10    50    1
    21    48    11    1
    22    11   114    1
    23    49    12    1
    24    12   115    1
    25    13    14    1
    26    13    17    1
    27    13    18    1
    28    13    24    1
    29    14    15    1
    30    14    20    1
    31    15    16    1
    32    15    23    1
    33    15    52    1
    34    16    19    1
    35    16    21    1
    36    16    53    1
    37    17    22    1
    38    17    27    1
    39    17    54    1
    40    18    21    1
    41    18    55    1
    42    18    56    1
    43    19    25    1
    44    19    26    1
    45    19    29    1
    46    20    22    1
    47    20    57    1
    48    20    58    1
    49    21    59    1
    50    21    60    1
    51    22    61    1
    52    22    62    1
    53    23    28    1
    54    23    63    1
    55    23    64    1
    56    24    65    1
    57    24    66    1
    58    24    67    1
    59    25    28    2
    60    25    30    1
    61    26    31    1
    62    26    68    1
    63    26    69    1
    64    27    33    1
    65    27    70    1
    66    28    71    1
    67    29    73    1
    68    29    74    1
    69    29    75    1
    70    30    32    1
    71    30    76    1
    72    30    77    1
    73    31    32    1
    74    31    78    1
    75    31    79    1
    76    32    80    1
    77    33    81    1
    78    33    82    1
    79    33    83    1
    80    34    35    1
    81    34    85    1
    82    35    36    1
    83    35    86    1
    84    35    87    1
    85    36    38    1
    86    36    88    1
    87    37    38    1
    88    37    39    1
    89    37    89    1
    90    38    90    1
    91    39    91    1
    92    39    92    1
    93    39    93    1
    94    40    41    1
    95    40    95    1
    96    41    42    1
    97    41    96    1
    98    41    97    1
    99    42    43    1
   100    42    98    1
   101    43    44    1
   102    43    99    1
   103    44    45    1
   104    44   100    1
   105    45   101    1
   106    45   102    1
   107    45   103    1
   108    46    47    1
   109    46   104    1
   110    47    48    1
   111    47   106    1
   112    47   107    1
   113    48    49    1
   114    48   108    1
   115    49    50    1
   116    49   109    1
   117    50    51    1
   118    50   110    1
   119    51   111    1
   120    51   112    1
   121    51   113    1
