@<TRIPOS>MOLECULE
IMPHY005778
 73 78 0 0 0
SMALL
GASTEIGER

@<TRIPOS>ATOM
      1 O           3.5121   -0.7026    0.0000 O.3     1  UNL1       -0.3877
      2 O           5.0296   -1.8714    0.0000 O.3     1  UNL1       -0.3790
      3 O           6.8523    1.8904    0.0000 O.3     1  UNL1       -0.3791
      4 O           3.1354    1.4645    0.0000 O.3     1  UNL1       -0.3910
      5 O           2.7346    2.3483    0.0000 O.3     1  UNL1       -0.3793
      6 O           7.7183   -2.3448    0.0000 O.3     1  UNL1       -0.3824
      7 N           8.0476    0.0613    0.0000 N.3     1  UNL1       -0.2980
      8 C           6.1010    0.4566    0.0000 C.3     1  UNL1        0.0219
      9 C           6.1010   -0.4110    0.0000 C.3     1  UNL1        0.0043
     10 C           5.4227    0.9975    0.0000 C.3     1  UNL1       -0.0230
     11 C           7.1029    0.3505    0.0000 C.3     1  UNL1        0.0268
     12 C           4.5768   -0.7589    0.0000 C.3     1  UNL1        0.0310
     13 C           4.5768    0.8044    0.0000 C.3     1  UNL1        0.0182
     14 C           4.2004    0.0228    0.0000 C.3     1  UNL1        0.0805
     15 C           5.4227   -0.9519    0.0000 C.3     1  UNL1        0.0693
     16 C           6.8523   -0.8448    0.0000 C.3     1  UNL1        0.0127
     17 C           6.8523    0.8904    0.0000 C.3     1  UNL1        0.0660
     18 C           5.5004    1.8616    0.0000 C.3     1  UNL1       -0.0416
     19 C           4.7027    2.2026    0.0000 C.3     1  UNL1        0.0120
     20 C           4.1319    1.5492    0.0000 C.3     1  UNL1        0.0661
     21 C           8.0476   -0.6906    0.0000 C.3     1  UNL1        0.0073
     22 C           3.5555    0.2927    0.0000 C.3     1  UNL1        0.0035
     23 C           7.6036   -0.4110    0.0000 C.3     1  UNL1       -0.0414
     24 C           3.5555    1.7772    0.0000 C.3     1  UNL1        0.0661
     25 C           7.6036    0.4566    0.0000 C.3     1  UNL1       -0.0254
     26 C           6.8523   -1.8448    0.0000 C.3     1  UNL1        0.0544
     27 C           8.8516    0.6560    0.0000 C.3     1  UNL1       -0.0036
     28 C           5.6295   -2.6716    0.0000 C.3     1  UNL1        0.0368
     29 C           9.7686    0.2571    0.0000 C.3     1  UNL1       -0.0523
     30 C           7.7183    2.3904    0.0000 C.3     1  UNL1        0.0368
     31 C           2.8188    3.3448    0.0000 C.3     1  UNL1        0.0368
     32 C           7.7183   -3.3448    0.0000 C.3     1  UNL1        0.0365
     33 H           6.1645   -1.2586    0.0000 H       1  UNL1        0.0339
     34 H           6.2043    1.3316    0.0000 H       1  UNL1        0.0312
     35 H           7.2269    0.9580    0.0000 H       1  UNL1        0.0473
     36 H           4.0469   -1.4234    0.0000 H       1  UNL1        0.0369
     37 H           3.7277    0.7663    0.0000 H       1  UNL1        0.0357
     38 H           5.6231   -1.5386    0.0000 H       1  UNL1        0.0603
     39 H           6.3154    1.2004    0.0000 H       1  UNL1        0.0602
     40 H           5.6832    2.4540    0.0000 H       1  UNL1        0.0272
     41 H           6.1088    1.7418    0.0000 H       1  UNL1        0.0272
     42 H           4.7234    3.0523    0.0000 H       1  UNL1        0.0351
     43 H           3.8518    2.1023    0.0000 H       1  UNL1        0.0600
     44 H           8.6671   -0.6640    0.0000 H       1  UNL1        0.0433
     45 H           8.1006   -1.3083    0.0000 H       1  UNL1        0.0433
     46 H           3.3936   -0.3058    0.0000 H       1  UNL1        0.0318
     47 H           2.9409    0.3744    0.0000 H       1  UNL1        0.0318
     48 H           8.2142   -0.3033    0.0000 H       1  UNL1        0.0273
     49 H           7.8157   -0.9936    0.0000 H       1  UNL1        0.0273
     50 H           3.6337    2.3923    0.0000 H       1  UNL1        0.0600
     51 H           7.8157    1.0392    0.0000 H       1  UNL1        0.0290
     52 H           8.2142    0.3489    0.0000 H       1  UNL1        0.0290
     53 H           6.6403   -2.4274    0.0000 H       1  UNL1        0.0566
     54 H           6.2417   -1.7371    0.0000 H       1  UNL1        0.0566
     55 H           2.9092   -0.5579    0.0000 H       1  UNL1        0.2102
     56 H           8.4020    1.0829    0.0000 H       1  UNL1        0.0424
     57 H           9.1939    1.1730    0.0000 H       1  UNL1        0.0424
     58 H           2.8720    0.9033    0.0000 H       1  UNL1        0.2098
     59 H           6.1255   -2.2997    0.0000 H       1  UNL1        0.0524
     60 H           6.0014   -3.1677    0.0000 H       1  UNL1        0.0524
     61 H           5.1334   -3.0435    0.0000 H       1  UNL1        0.0524
     62 H          10.0159    0.8256    0.0000 H       1  UNL1        0.0242
     63 H          10.3371    0.0098    0.0000 H       1  UNL1        0.0242
     64 H           9.5213   -0.3114    0.0000 H       1  UNL1        0.0242
     65 H           7.4083    2.9273    0.0000 H       1  UNL1        0.0524
     66 H           8.2553    2.7004    0.0000 H       1  UNL1        0.0524
     67 H           8.0283    1.8534    0.0000 H       1  UNL1        0.0524
     68 H           2.2010    3.3970    0.0000 H       1  UNL1        0.0524
     69 H           2.8710    3.9626    0.0000 H       1  UNL1        0.0524
     70 H           3.4366    3.2926    0.0000 H       1  UNL1        0.0524
     71 H           8.3383   -3.3448    0.0000 H       1  UNL1        0.0523
     72 H           7.7183   -3.9648    0.0000 H       1  UNL1        0.0523
     73 H           7.0983   -3.3448    0.0000 H       1  UNL1        0.0523
@<TRIPOS>BOND
     1    14     1    1
     2     1    55    1
     3    15     2    1
     4     2    28    1
     5    17     3    1
     6     3    30    1
     7    20     4    1
     8     4    58    1
     9    24     5    1
    10     5    31    1
    11     6    26    1
    12     6    32    1
    13     7    11    1
    14     7    21    1
    15     7    27    1
    16     8     9    1
    17     8    10    1
    18     8    11    1
    19     8    17    1
    20     9    15    1
    21     9    16    1
    22     9    33    1
    23    10    13    1
    24    10    18    1
    25    10    34    1
    26    11    12    1
    27    11    35    1
    28    12    14    1
    29    12    15    1
    30    12    36    1
    31    13    14    1
    32    13    20    1
    33    13    37    1
    34    14    22    1
    35    15    38    1
    36    16    21    1
    37    16    23    1
    38    16    26    1
    39    17    25    1
    40    17    39    1
    41    18    19    1
    42    18    40    1
    43    18    41    1
    44    19    20    1
    45    19    24    1
    46    19    42    1
    47    20    43    1
    48    21    44    1
    49    21    45    1
    50    22    24    1
    51    22    46    1
    52    22    47    1
    53    23    25    1
    54    23    48    1
    55    23    49    1
    56    24    50    1
    57    25    51    1
    58    25    52    1
    59    26    53    1
    60    26    54    1
    61    27    29    1
    62    27    56    1
    63    27    57    1
    64    28    59    1
    65    28    60    1
    66    28    61    1
    67    29    62    1
    68    29    63    1
    69    29    64    1
    70    30    65    1
    71    30    66    1
    72    30    67    1
    73    31    68    1
    74    31    69    1
    75    31    70    1
    76    32    71    1
    77    32    72    1
    78    32    73    1
