@<TRIPOS>MOLECULE
IMPHY002474
 80 84 0 0 0
SMALL
GASTEIGER

@<TRIPOS>ATOM
      1 O           2.5357   -1.9563    0.0000 O.3     1  UNL1       -0.3881
      2 O           2.5519    0.1353    0.0000 O.3     1  UNL1       -0.3892
      3 O           4.3500   -3.7342    0.0000 O.3     1  UNL1       -0.4802
      4 O           2.8467   -2.8739    0.0000 O.2     1  UNL1       -0.2503
      5 O          11.4608    1.1302    0.0000 O.3     1  UNL1       -0.4802
      6 O          10.6064   -0.3764    0.0000 O.2     1  UNL1       -0.2504
      7 C           7.0628   -0.4039    0.0000 C.3     1  UNL1       -0.0194
      8 C           6.1968    0.0961    0.0000 C.3     1  UNL1       -0.0256
      9 C           5.2868   -0.4108    0.0000 C.3     1  UNL1       -0.0221
     10 C           7.9288    0.0961    0.0000 C.3     1  UNL1       -0.0051
     11 C           5.2787   -1.4524    0.0000 C.3     1  UNL1       -0.0173
     12 C           7.0789   -1.4454    0.0000 C.3     1  UNL1       -0.0463
     13 C           6.1808   -1.9732    0.0000 C.3     1  UNL1       -0.0481
     14 C           7.9288    1.0961    0.0000 C.2     1  UNL1       -0.0623
     15 C           4.3433   -2.0021    0.0000 C.3     1  UNL1        0.0962
     16 C           6.1968    1.0961    0.0000 C.3     1  UNL1       -0.0306
     17 C           4.3599    0.1533    0.0000 C.3     1  UNL1       -0.0184
     18 C           8.8228   -0.4386    0.0000 C.3     1  UNL1       -0.0424
     19 C           8.8228    1.6307    0.0000 C.3     1  UNL1        0.0029
     20 C           9.7288    1.1169    0.0000 C.3     1  UNL1        0.0780
     21 C           7.7056   -1.1700    0.0000 C.3     1  UNL1       -0.0585
     22 C           3.4037   -1.4596    0.0000 C.3     1  UNL1        0.0967
     23 C           5.2945    0.5892    0.0000 C.3     1  UNL1       -0.0589
     24 C           3.4120   -0.3747    0.0000 C.3     1  UNL1        0.0826
     25 C           9.7288    0.0752    0.0000 C.3     1  UNL1       -0.0356
     26 C           7.0628    1.5961    0.0000 C.2     1  UNL1       -0.0836
     27 C           8.2709   -0.8436    0.0000 C.3     1  UNL1       -0.0553
     28 C           8.7977    2.7154    0.0000 C.3     1  UNL1       -0.0154
     29 C           4.8466   -2.8662    0.0000 C.3     1  UNL1       -0.0466
     30 C          10.6726    1.6521    0.0000 C.3     1  UNL1       -0.0181
     31 C           3.8467   -2.8701    0.0000 C.2     1  UNL1        0.3135
     32 C          10.5987    0.6236    0.0000 C.2     1  UNL1        0.3118
     33 C           9.7288    3.2723    0.0000 C.2     1  UNL1       -0.0731
     34 C          10.6726    2.7371    0.0000 C.2     1  UNL1       -0.0837
     35 C           7.9222    3.1986    0.0000 C.3     1  UNL1       -0.0581
     36 C           9.7173    4.2723    0.0000 C.3     1  UNL1       -0.0435
     37 H           6.9329    0.5211    0.0000 H       1  UNL1        0.0315
     38 H           5.2820   -2.3024    0.0000 H       1  UNL1        0.0317
     39 H           7.2969   -2.0258    0.0000 H       1  UNL1        0.0271
     40 H           7.6880   -1.3300    0.0000 H       1  UNL1        0.0271
     41 H           5.7835   -2.4492    0.0000 H       1  UNL1        0.0269
     42 H           6.5818   -2.4461    0.0000 H       1  UNL1        0.0269
     43 H           5.9847    1.6787    0.0000 H       1  UNL1        0.0310
     44 H           5.5862    0.9884    0.0000 H       1  UNL1        0.0310
     45 H           4.7681    0.6199    0.0000 H       1  UNL1        0.0296
     46 H           3.9700    0.6353    0.0000 H       1  UNL1        0.0296
     47 H           8.4182   -0.9084    0.0000 H       1  UNL1        0.0274
     48 H           9.2164   -0.9176    0.0000 H       1  UNL1        0.0274
     49 H           8.0786    2.0415    0.0000 H       1  UNL1        0.0362
     50 H           7.2306   -1.5685    0.0000 H       1  UNL1        0.0235
     51 H           8.1041   -1.6449    0.0000 H       1  UNL1        0.0235
     52 H           8.1805   -0.7715    0.0000 H       1  UNL1        0.0235
     53 H           3.4025   -2.0796    0.0000 H       1  UNL1        0.0630
     54 H           5.9145    0.5844    0.0000 H       1  UNL1        0.0235
     55 H           5.2993    1.2092    0.0000 H       1  UNL1        0.0235
     56 H           4.6745    0.5940    0.0000 H       1  UNL1        0.0235
     57 H           2.8722   -0.6795    0.0000 H       1  UNL1        0.0619
     58 H           9.9379   -0.5084    0.0000 H       1  UNL1        0.0276
     59 H          10.3397    0.1813    0.0000 H       1  UNL1        0.0276
     60 H           7.0628    2.2161    0.0000 H       1  UNL1        0.0572
     61 H           7.6884   -1.0557    0.0000 H       1  UNL1        0.0238
     62 H           8.4830   -1.4262    0.0000 H       1  UNL1        0.0238
     63 H           8.8535   -0.6315    0.0000 H       1  UNL1        0.0238
     64 H           8.2674    2.3941    0.0000 H       1  UNL1        0.0349
     65 H           4.3109   -3.1783    0.0000 H       1  UNL1        0.0241
     66 H           5.1587   -3.4019    0.0000 H       1  UNL1        0.0241
     67 H           5.3824   -2.5541    0.0000 H       1  UNL1        0.0241
     68 H          10.8817    1.0684    0.0000 H       1  UNL1        0.0318
     69 H          11.2835    1.7582    0.0000 H       1  UNL1        0.0318
     70 H          11.2084    3.0492    0.0000 H       1  UNL1        0.0572
     71 H           8.2218    3.7414    0.0000 H       1  UNL1        0.0236
     72 H           7.3794    3.4982    0.0000 H       1  UNL1        0.0236
     73 H           7.6226    2.6558    0.0000 H       1  UNL1        0.0236
     74 H           2.0000   -1.6442    0.0000 H       1  UNL1        0.2099
     75 H           2.5590    0.7553    0.0000 H       1  UNL1        0.2099
     76 H          10.3372    4.2794    0.0000 H       1  UNL1        0.0274
     77 H           9.7101    4.8922    0.0000 H       1  UNL1        0.0274
     78 H           9.0973    4.2651    0.0000 H       1  UNL1        0.0274
     79 H           4.0421   -4.2723    0.0000 H       1  UNL1        0.2951
     80 H          12.0001    0.8244    0.0000 H       1  UNL1        0.2951
@<TRIPOS>BOND
     1    22     1    1
     2     1    74    1
     3    24     2    1
     4     2    75    1
     5     3    31    1
     6     3    79    1
     7     4    31    2
     8     5    32    1
     9     5    80    1
    10     6    32    2
    11     7     8    1
    12     7    10    1
    13     7    12    1
    14     7    21    1
    15     8     9    1
    16     8    16    1
    17     8    37    1
    18     9    11    1
    19     9    17    1
    20     9    23    1
    21    10    14    1
    22    10    18    1
    23    10    27    1
    24    11    13    1
    25    11    15    1
    26    11    38    1
    27    12    13    1
    28    12    39    1
    29    12    40    1
    30    13    41    1
    31    13    42    1
    32    14    19    1
    33    14    26    2
    34    15    22    1
    35    15    29    1
    36    15    31    1
    37    16    26    1
    38    16    43    1
    39    16    44    1
    40    17    24    1
    41    17    45    1
    42    17    46    1
    43    18    25    1
    44    18    47    1
    45    18    48    1
    46    19    20    1
    47    19    28    1
    48    19    49    1
    49    20    25    1
    50    20    30    1
    51    20    32    1
    52    21    50    1
    53    21    51    1
    54    21    52    1
    55    22    24    1
    56    22    53    1
    57    23    54    1
    58    23    55    1
    59    23    56    1
    60    24    57    1
    61    25    58    1
    62    25    59    1
    63    26    60    1
    64    27    61    1
    65    27    62    1
    66    27    63    1
    67    28    33    1
    68    28    35    1
    69    28    64    1
    70    29    65    1
    71    29    66    1
    72    29    67    1
    73    30    34    1
    74    30    68    1
    75    30    69    1
    76    33    34    2
    77    33    36    1
    78    34    70    1
    79    35    71    1
    80    35    72    1
    81    35    73    1
    82    36    76    1
    83    36    77    1
    84    36    78    1
