@<TRIPOS>MOLECULE
IMPHY008530
 104 110 0 0 0
SMALL
GASTEIGER

@<TRIPOS>ATOM
      1 O          11.2303    2.1646    0.0000 O.3     1  UNL1       -0.3877
      2 O          11.2542   -0.9113    0.0000 O.3     1  UNL1       -0.3879
      3 O           7.7701    1.1512    0.0000 O.3     1  UNL1       -0.3915
      4 O           9.4651   -3.0390    0.0000 O.3     1  UNL1       -0.3453
      5 O           8.3679    6.3490    0.0000 O.3     1  UNL1       -0.4571
      6 O           7.7331   -3.0390    0.0000 O.3     1  UNL1       -0.3405
      7 O           6.6476    5.8841    0.0000 O.2     1  UNL1       -0.2456
      8 O           9.4651   -5.0390    0.0000 O.3     1  UNL1       -0.3841
      9 O           7.7331   -6.0390    0.0000 O.3     1  UNL1       -0.3864
     10 O           6.0010   -5.0390    0.0000 O.3     1  UNL1       -0.3401
     11 O           6.0010   -2.0390    0.0000 O.3     1  UNL1       -0.3924
     12 O           5.1350   -3.5390    0.0000 O.3     1  UNL1       -0.3431
     13 O           4.2690   -6.0390    0.0000 O.3     1  UNL1       -0.3841
     14 O           2.5369   -5.0390    0.0000 O.3     1  UNL1       -0.3864
     15 O           2.5369   -3.0390    0.0000 O.3     1  UNL1       -0.3866
     16 C          10.3662    1.6612    0.0000 C.3     1  UNL1       -0.0058
     17 C          10.3623    2.6612    0.0000 C.3     1  UNL1        0.0752
     18 C           9.5021    1.1579    0.0000 C.3     1  UNL1       -0.0015
     19 C           9.4944    3.1579    0.0000 C.3     1  UNL1        0.0059
     20 C           9.4901    0.1163    0.0000 C.3     1  UNL1        0.0024
     21 C          10.3901   -0.4079    0.0000 C.3     1  UNL1        0.0741
     22 C           8.6342    1.6546    0.0000 C.3     1  UNL1        0.0596
     23 C           8.6303    2.6546    0.0000 C.3     1  UNL1       -0.0180
     24 C           9.6999    4.1305    0.0000 C.3     1  UNL1       -0.0080
     25 C          11.2781    1.1579    0.0000 C.3     1  UNL1       -0.0446
     26 C          11.0968    3.3312    0.0000 C.3     1  UNL1       -0.0226
     27 C          11.2902    0.1163    0.0000 C.3     1  UNL1       -0.0230
     28 C          10.6882    4.2374    0.0000 C.3     1  UNL1       -0.0432
     29 C           8.5402   -0.4079    0.0000 C.3     1  UNL1       -0.0423
     30 C          10.4027   -1.4929    0.0000 C.3     1  UNL1        0.0030
     31 C           8.6264    3.6546    0.0000 C.3     1  UNL1       -0.0563
     32 C           8.6260    0.6197    0.0000 C.3     1  UNL1       -0.0566
     33 C           8.5276   -1.4929    0.0000 C.3     1  UNL1       -0.0258
     34 C           9.4651   -2.0390    0.0000 C.3     1  UNL1        0.0644
     35 C           9.0292    4.8722    0.0000 C.2     1  UNL1       -0.0222
     36 C           9.2350    5.8508    0.0000 C.3     1  UNL1        0.1147
     37 C           8.0348    4.7656    0.0000 C.2     1  UNL1        0.0252
     38 C           8.5991   -3.5390    0.0000 C.3     1  UNL1        0.1882
     39 C           7.6262    5.6783    0.0000 C.2     1  UNL1        0.3323
     40 C           8.5991   -4.5390    0.0000 C.3     1  UNL1        0.1341
     41 C           7.7331   -5.0390    0.0000 C.3     1  UNL1        0.1144
     42 C           6.8671   -3.5390    0.0000 C.3     1  UNL1        0.1134
     43 C           6.8671   -4.5390    0.0000 C.3     1  UNL1        0.1184
     44 C           6.0010   -3.0390    0.0000 C.3     1  UNL1        0.0730
     45 C           5.1350   -4.5390    0.0000 C.3     1  UNL1        0.1883
     46 C           4.2690   -5.0390    0.0000 C.3     1  UNL1        0.1341
     47 C           3.4030   -4.5390    0.0000 C.3     1  UNL1        0.1140
     48 C           4.2690   -3.0390    0.0000 C.3     1  UNL1        0.0873
     49 C           3.4030   -3.5390    0.0000 C.3     1  UNL1        0.1095
     50 C           4.2690   -2.0390    0.0000 C.3     1  UNL1       -0.0361
     51 H          11.0974    2.0947    0.0000 H       1  UNL1        0.0332
     52 H          10.2366    0.7301    0.0000 H       1  UNL1        0.0335
     53 H           8.6366    1.0346    0.0000 H       1  UNL1        0.0596
     54 H           8.4160    3.2364    0.0000 H       1  UNL1        0.0296
     55 H           8.0201    2.5446    0.0000 H       1  UNL1        0.0296
     56 H           9.9206    4.7099    0.0000 H       1  UNL1        0.0353
     57 H          11.8902    1.0589    0.0000 H       1  UNL1        0.0270
     58 H          11.4804    1.7440    0.0000 H       1  UNL1        0.0270
     59 H          11.4642    2.8317    0.0000 H       1  UNL1        0.0293
     60 H          11.6321    3.6440    0.0000 H       1  UNL1        0.0293
     61 H          11.5060   -0.4649    0.0000 H       1  UNL1        0.0293
     62 H          11.8998    0.2295    0.0000 H       1  UNL1        0.0293
     63 H          11.2770    4.4314    0.0000 H       1  UNL1        0.0272
     64 H          10.5571    4.8434    0.0000 H       1  UNL1        0.0272
     65 H           8.3379    0.1781    0.0000 H       1  UNL1        0.0272
     66 H           7.9281   -0.5070    0.0000 H       1  UNL1        0.0272
     67 H          10.6185   -2.0741    0.0000 H       1  UNL1        0.0318
     68 H          11.0123   -1.3797    0.0000 H       1  UNL1        0.0318
     69 H           8.9344    4.1927    0.0000 H       1  UNL1        0.0236
     70 H           8.0883    3.9625    0.0000 H       1  UNL1        0.0236
     71 H           8.3185    3.1164    0.0000 H       1  UNL1        0.0236
     72 H           8.9380    1.1554    0.0000 H       1  UNL1        0.0236
     73 H           8.0902    0.9318    0.0000 H       1  UNL1        0.0236
     74 H           8.3139    0.0839    0.0000 H       1  UNL1        0.0236
     75 H           7.9180   -1.3797    0.0000 H       1  UNL1        0.0290
     76 H           8.3118   -2.0741    0.0000 H       1  UNL1        0.0290
     77 H          10.0027   -2.3479    0.0000 H       1  UNL1        0.0598
     78 H          11.7660    2.4766    0.0000 H       1  UNL1        0.2102
     79 H          11.7923   -0.6033    0.0000 H       1  UNL1        0.2102
     80 H           7.2319    1.4592    0.0000 H       1  UNL1        0.2098
     81 H           9.8250    5.6605    0.0000 H       1  UNL1        0.0746
     82 H           9.4860    6.4178    0.0000 H       1  UNL1        0.0746
     83 H           7.7260    4.2280    0.0000 H       1  UNL1        0.0689
     84 H           8.5991   -2.9190    0.0000 H       1  UNL1        0.0937
     85 H           8.5991   -5.1590    0.0000 H       1  UNL1        0.0671
     86 H           7.1962   -5.3490    0.0000 H       1  UNL1        0.0648
     87 H           6.8671   -2.9190    0.0000 H       1  UNL1        0.0647
     88 H           6.3301   -4.2290    0.0000 H       1  UNL1        0.0651
     89 H          10.0021   -4.7290    0.0000 H       1  UNL1        0.2101
     90 H           5.3905   -2.9313    0.0000 H       1  UNL1        0.0584
     91 H           5.7890   -3.6216    0.0000 H       1  UNL1        0.0584
     92 H           8.2700   -6.3490    0.0000 H       1  UNL1        0.2100
     93 H           5.1350   -5.1590    0.0000 H       1  UNL1        0.0938
     94 H           5.4641   -1.7290    0.0000 H       1  UNL1        0.2095
     95 H           3.7320   -5.3490    0.0000 H       1  UNL1        0.0671
     96 H           2.8660   -4.2290    0.0000 H       1  UNL1        0.0648
     97 H           4.8059   -2.7290    0.0000 H       1  UNL1        0.0621
     98 H           3.4030   -2.9190    0.0000 H       1  UNL1        0.0646
     99 H           4.8059   -6.3490    0.0000 H       1  UNL1        0.2101
    100 H           4.8890   -2.0390    0.0000 H       1  UNL1        0.0255
    101 H           4.2690   -1.4190    0.0000 H       1  UNL1        0.0255
    102 H           3.6490   -2.0390    0.0000 H       1  UNL1        0.0255
    103 H           2.0000   -4.7290    0.0000 H       1  UNL1        0.2100
    104 H           2.5369   -2.4190    0.0000 H       1  UNL1        0.2100
@<TRIPOS>BOND
     1    17     1    1
     2     1    78    1
     3    21     2    1
     4     2    79    1
     5    22     3    1
     6     3    80    1
     7    34     4    1
     8    38     4    1
     9     5    36    1
    10     5    39    1
    11     6    38    1
    12     6    42    1
    13     7    39    2
    14    40     8    1
    15     8    89    1
    16    41     9    1
    17     9    92    1
    18    43    10    1
    19    45    10    1
    20    11    44    1
    21    11    94    1
    22    12    45    1
    23    12    48    1
    24    46    13    1
    25    13    99    1
    26    47    14    1
    27    14   103    1
    28    49    15    1
    29    15   104    1
    30    16    17    1
    31    16    18    1
    32    16    25    1
    33    16    51    1
    34    17    19    1
    35    17    26    1
    36    18    20    1
    37    18    22    1
    38    18    52    1
    39    19    23    1
    40    19    24    1
    41    19    31    1
    42    20    21    1
    43    20    29    1
    44    20    32    1
    45    21    27    1
    46    21    30    1
    47    22    23    1
    48    22    53    1
    49    23    54    1
    50    23    55    1
    51    24    28    1
    52    24    35    1
    53    24    56    1
    54    25    27    1
    55    25    57    1
    56    25    58    1
    57    26    28    1
    58    26    59    1
    59    26    60    1
    60    27    61    1
    61    27    62    1
    62    28    63    1
    63    28    64    1
    64    29    33    1
    65    29    65    1
    66    29    66    1
    67    30    34    1
    68    30    67    1
    69    30    68    1
    70    31    69    1
    71    31    70    1
    72    31    71    1
    73    32    72    1
    74    32    73    1
    75    32    74    1
    76    33    34    1
    77    33    75    1
    78    33    76    1
    79    34    77    1
    80    35    36    1
    81    35    37    2
    82    36    81    1
    83    36    82    1
    84    37    39    1
    85    37    83    1
    86    38    40    1
    87    38    84    1
    88    40    41    1
    89    40    85    1
    90    41    43    1
    91    41    86    1
    92    42    43    1
    93    42    44    1
    94    42    87    1
    95    43    88    1
    96    44    90    1
    97    44    91    1
    98    45    46    1
    99    45    93    1
   100    46    47    1
   101    46    95    1
   102    47    49    1
   103    47    96    1
   104    48    49    1
   105    48    50    1
   106    48    97    1
   107    49    98    1
   108    50   100    1
   109    50   101    1
   110    50   102    1
