@<TRIPOS>MOLECULE
IMPHY004189
 85 90 0 0 0
SMALL
GASTEIGER

@<TRIPOS>ATOM
      1 O           7.7662    1.7624    0.0000 O.3     1  UNL1       -0.3876
      2 O           7.7207    4.7032    0.0000 O.3     1  UNL1       -0.3911
      3 O           6.0010   -3.4411    0.0000 O.3     1  UNL1       -0.3454
      4 O           4.1621    5.2761    0.0000 O.3     1  UNL1       -0.4571
      5 O           4.2690   -3.4411    0.0000 O.3     1  UNL1       -0.3431
      6 O           4.7972    6.9411    0.0000 O.2     1  UNL1       -0.2456
      7 O           6.0010   -5.4411    0.0000 O.3     1  UNL1       -0.3841
      8 O           4.2690   -6.4411    0.0000 O.3     1  UNL1       -0.3744
      9 O           2.5369   -5.4411    0.0000 O.3     1  UNL1       -0.3866
     10 C           6.8982    2.2591    0.0000 C.3     1  UNL1        0.0775
     11 C           6.9021    1.2591    0.0000 C.3     1  UNL1       -0.0082
     12 C           6.0380    0.7558    0.0000 C.3     1  UNL1       -0.0299
     13 C           6.0303    2.7558    0.0000 C.3     1  UNL1        0.0060
     14 C           6.0260   -0.2858    0.0000 C.3     1  UNL1       -0.0259
     15 C           6.9260   -0.8101    0.0000 C.3     1  UNL1       -0.0330
     16 C           6.2358    3.7284    0.0000 C.3     1  UNL1        0.0179
     17 C           5.1701    1.2524    0.0000 C.3     1  UNL1       -0.0488
     18 C           5.1662    2.2524    0.0000 C.3     1  UNL1       -0.0441
     19 C           7.6327    2.9290    0.0000 C.3     1  UNL1        0.0035
     20 C           7.8140    0.7558    0.0000 C.3     1  UNL1       -0.0470
     21 C           7.2241    3.8352    0.0000 C.3     1  UNL1        0.0651
     22 C           7.8261   -0.2858    0.0000 C.3     1  UNL1       -0.0493
     23 C           5.0761   -0.8101    0.0000 C.3     1  UNL1       -0.0448
     24 C           6.9386   -1.8950    0.0000 C.3     1  UNL1       -0.0232
     25 C           5.1624    3.2524    0.0000 C.3     1  UNL1       -0.0563
     26 C           5.1619    0.2175    0.0000 C.3     1  UNL1       -0.0590
     27 C           5.0635   -1.8950    0.0000 C.3     1  UNL1       -0.0260
     28 C           6.0010   -2.4411    0.0000 C.3     1  UNL1        0.0621
     29 C           5.5650    4.4701    0.0000 C.2     1  UNL1       -0.0198
     30 C           4.5708    4.3634    0.0000 C.3     1  UNL1        0.1148
     31 C           5.7709    5.4487    0.0000 C.2     1  UNL1        0.0253
     32 C           5.1350   -3.9411    0.0000 C.3     1  UNL1        0.1881
     33 C           4.9038    5.9468    0.0000 C.2     1  UNL1        0.3323
     34 C           5.1350   -4.9411    0.0000 C.3     1  UNL1        0.1344
     35 C           4.2690   -5.4411    0.0000 C.3     1  UNL1        0.1170
     36 C           3.4030   -3.9411    0.0000 C.3     1  UNL1        0.0873
     37 C           3.4030   -4.9411    0.0000 C.3     1  UNL1        0.1097
     38 C           2.5369   -3.4411    0.0000 C.3     1  UNL1       -0.0361
     39 C           3.4030   -6.9411    0.0000 C.3     1  UNL1        0.0370
     40 H           7.6333    1.6926    0.0000 H       1  UNL1        0.0331
     41 H           6.7725    0.3279    0.0000 H       1  UNL1        0.0310
     42 H           7.6654   -1.2294    0.0000 H       1  UNL1        0.0307
     43 H           6.4565    4.3078    0.0000 H       1  UNL1        0.0378
     44 H           4.5591    1.3577    0.0000 H       1  UNL1        0.0268
     45 H           4.9602    0.6690    0.0000 H       1  UNL1        0.0268
     46 H           4.9519    2.8342    0.0000 H       1  UNL1        0.0272
     47 H           4.5560    2.1424    0.0000 H       1  UNL1        0.0272
     48 H           8.0000    2.4296    0.0000 H       1  UNL1        0.0318
     49 H           8.1680    3.2418    0.0000 H       1  UNL1        0.0318
     50 H           8.4261    0.6567    0.0000 H       1  UNL1        0.0269
     51 H           8.0163    1.3418    0.0000 H       1  UNL1        0.0269
     52 H           6.8846    4.3540    0.0000 H       1  UNL1        0.0600
     53 H           8.0419   -0.8670    0.0000 H       1  UNL1        0.0268
     54 H           8.4357   -0.1727    0.0000 H       1  UNL1        0.0268
     55 H           4.8738   -0.2240    0.0000 H       1  UNL1        0.0271
     56 H           4.4640   -0.9091    0.0000 H       1  UNL1        0.0271
     57 H           7.1544   -2.4762    0.0000 H       1  UNL1        0.0293
     58 H           7.5482   -1.7819    0.0000 H       1  UNL1        0.0293
     59 H           5.4703    3.7905    0.0000 H       1  UNL1        0.0236
     60 H           4.6242    3.5603    0.0000 H       1  UNL1        0.0236
     61 H           4.8544    2.7143    0.0000 H       1  UNL1        0.0236
     62 H           5.4739    0.7533    0.0000 H       1  UNL1        0.0235
     63 H           4.6261    0.5296    0.0000 H       1  UNL1        0.0235
     64 H           4.8498   -0.3182    0.0000 H       1  UNL1        0.0235
     65 H           4.4539   -1.7819    0.0000 H       1  UNL1        0.0290
     66 H           4.8477   -2.4762    0.0000 H       1  UNL1        0.0290
     67 H           6.5386   -2.7501    0.0000 H       1  UNL1        0.0597
     68 H           8.3019    2.0745    0.0000 H       1  UNL1        0.2102
     69 H           8.3407    4.7056    0.0000 H       1  UNL1        0.2098
     70 H           3.9815    4.1706    0.0000 H       1  UNL1        0.0746
     71 H           4.7009    3.7573    0.0000 H       1  UNL1        0.0746
     72 H           6.3367    5.7020    0.0000 H       1  UNL1        0.0689
     73 H           5.1350   -3.3211    0.0000 H       1  UNL1        0.0937
     74 H           5.1350   -5.5611    0.0000 H       1  UNL1        0.0671
     75 H           3.7320   -5.7511    0.0000 H       1  UNL1        0.0650
     76 H           3.4030   -3.3211    0.0000 H       1  UNL1        0.0621
     77 H           2.8660   -4.6311    0.0000 H       1  UNL1        0.0646
     78 H           6.0010   -6.0611    0.0000 H       1  UNL1        0.2101
     79 H           2.8469   -2.9042    0.0000 H       1  UNL1        0.0255
     80 H           2.0000   -3.1311    0.0000 H       1  UNL1        0.0255
     81 H           2.2269   -3.9781    0.0000 H       1  UNL1        0.0255
     82 H           2.0000   -5.1311    0.0000 H       1  UNL1        0.2100
     83 H           3.0930   -6.4042    0.0000 H       1  UNL1        0.0524
     84 H           2.8660   -7.2511    0.0000 H       1  UNL1        0.0524
     85 H           3.7130   -7.4781    0.0000 H       1  UNL1        0.0524
@<TRIPOS>BOND
     1    10     1    1
     2     1    68    1
     3    21     2    1
     4     2    69    1
     5    28     3    1
     6    32     3    1
     7     4    30    1
     8     4    33    1
     9     5    32    1
    10     5    36    1
    11     6    33    2
    12    34     7    1
    13     7    78    1
    14    35     8    1
    15     8    39    1
    16    37     9    1
    17     9    82    1
    18    10    11    1
    19    10    13    1
    20    10    19    1
    21    11    12    1
    22    11    20    1
    23    11    40    1
    24    12    14    1
    25    12    17    1
    26    12    41    1
    27    13    16    1
    28    13    18    1
    29    13    25    1
    30    14    15    1
    31    14    23    1
    32    14    26    1
    33    15    22    1
    34    15    24    1
    35    15    42    1
    36    16    21    1
    37    16    29    1
    38    16    43    1
    39    17    18    1
    40    17    44    1
    41    17    45    1
    42    18    46    1
    43    18    47    1
    44    19    21    1
    45    19    48    1
    46    19    49    1
    47    20    22    1
    48    20    50    1
    49    20    51    1
    50    21    52    1
    51    22    53    1
    52    22    54    1
    53    23    27    1
    54    23    55    1
    55    23    56    1
    56    24    28    1
    57    24    57    1
    58    24    58    1
    59    25    59    1
    60    25    60    1
    61    25    61    1
    62    26    62    1
    63    26    63    1
    64    26    64    1
    65    27    28    1
    66    27    65    1
    67    27    66    1
    68    28    67    1
    69    29    30    1
    70    29    31    2
    71    30    70    1
    72    30    71    1
    73    31    33    1
    74    31    72    1
    75    32    34    1
    76    32    73    1
    77    34    35    1
    78    34    74    1
    79    35    37    1
    80    35    75    1
    81    36    37    1
    82    36    38    1
    83    36    76    1
    84    37    77    1
    85    38    79    1
    86    38    80    1
    87    38    81    1
    88    39    83    1
    89    39    84    1
    90    39    85    1
