@<TRIPOS>MOLECULE
IMPHY014329
 30 30 0 0 0
SMALL
GASTEIGER

@<TRIPOS>ATOM
      1 O           5.4641    4.2500    0.0000 O.3     1  ALA1       -0.4793
      2 O           2.8660    1.7500    0.0000 O.2     0  UNK0       -0.2708
      3 OXT         6.3301    2.7500    0.0000 O.2     1  ALA1       -0.2489
      4 O           2.8660   -4.2500    0.0000 O.3     0  UNK0       -0.5068
      5 N           4.5981    1.7500    0.0000 N.am    1  ALA1       -0.2990
      6 CA          4.5981    2.7500    0.0000 C.3     1  ALA1        0.1176
      7 CB          3.7320    3.2500    0.0000 C.3     1  ALA1       -0.0362
      8 C           2.8660   -1.2500    0.0000 C.ar    0  UNK0       -0.0247
      9 C           3.7320    1.2500    0.0000 C.2     0  UNK0        0.2375
     10 C           5.4641    3.2500    0.0000 C.2     1  ALA1        0.3250
     11 C           2.8660   -0.2500    0.0000 C.2     0  UNK0       -0.0497
     12 C           3.7320    0.2500    0.0000 C.2     0  UNK0        0.0007
     13 C           3.7320   -1.7500    0.0000 C.ar    0  UNK0       -0.0511
     14 C           2.0000   -1.7500    0.0000 C.ar    0  UNK0       -0.0511
     15 C           3.7320   -2.7500    0.0000 C.ar    0  UNK0       -0.0196
     16 C           2.0000   -2.7500    0.0000 C.ar    0  UNK0       -0.0196
     17 C           2.8660   -3.2500    0.0000 C.ar    0  UNK0        0.1169
     18 HA          5.1350    2.4400    0.0000 H       1  ALA1        0.0611
     19 H           5.1350    1.4400    0.0000 H       1  ALA1        0.1498
     20 HB1         4.0420    3.7869    0.0000 H       1  ALA1        0.0253
     21 HB2         3.1951    3.5600    0.0000 H       1  ALA1        0.0253
     22 HB3         3.4220    2.7131    0.0000 H       1  ALA1        0.0253
     23 H           2.3291    0.0600    0.0000 H       0  UNK0        0.0625
     24 H           4.2690   -0.0600    0.0000 H       0  UNK0        0.0669
     25 H           4.2690   -1.4400    0.0000 H       0  UNK0        0.0625
     26 H           1.4631   -1.4400    0.0000 H       0  UNK0        0.0625
     27 H           4.2690   -3.0600    0.0000 H       0  UNK0        0.0654
     28 H           1.4631   -3.0600    0.0000 H       0  UNK0        0.0654
     29 H           6.0010    4.5600    0.0000 H       1  ALA1        0.2951
     30 H           2.3291   -4.5600    0.0000 H       0  UNK0        0.2921
@<TRIPOS>BOND
     1     1    10    1
     2     1    29    1
     3     2     9    2
     4     3    10    2
     5     4    17    1
     6     4    30    1
     7     6     5    1
     8     5     9   am
     9     5    19    1
    10     6     7    1
    11     6    10    1
    12     6    18    1
    13     7    20    1
    14     7    21    1
    15     7    22    1
    16     8    11    1
    17     8    13   ar
    18     8    14   ar
    19     9    12    1
    20    11    12    2
    21    11    23    1
    22    12    24    1
    23    13    15   ar
    24    13    25    1
    25    14    16   ar
    26    14    26    1
    27    15    17   ar
    28    15    27    1
    29    16    17   ar
    30    16    28    1
