@<TRIPOS>MOLECULE
IMPHY013811
 24 23 0 0 0
SMALL
GASTEIGER

@<TRIPOS>ATOM
      1 O           6.3301    0.8100    0.0000 O.3     1  UNL1       -0.4558
      2 O           3.7320    0.3100    0.0000 O.3     1  UNL1       -0.4610
      3 O           4.5981   -1.1900    0.0000 O.3     1  UNL1       -0.3912
      4 O           7.1962   -0.6900    0.0000 O.2     1  UNL1       -0.2512
      5 O           2.8660    1.8100    0.0000 O.2     1  UNL1       -0.2512
      6 C           5.4641    0.3100    0.0000 C.3     1  UNL1        0.1597
      7 C           4.5981    0.8100    0.0000 C.3     1  UNL1        0.1314
      8 C           5.4641   -0.6900    0.0000 C.3     1  UNL1        0.0844
      9 C           7.1962    0.3100    0.0000 C.2     1  UNL1        0.3044
     10 C           2.8660    0.8100    0.0000 C.2     1  UNL1        0.3041
     11 C           8.0622    0.8100    0.0000 C.3     1  UNL1        0.0332
     12 C           2.0000    0.3100    0.0000 C.3     1  UNL1        0.0332
     13 H           5.4641    0.9300    0.0000 H       1  UNL1        0.0792
     14 H           4.9966    1.2850    0.0000 H       1  UNL1        0.0736
     15 H           4.1996    1.2850    0.0000 H       1  UNL1        0.0736
     16 H           5.6762   -1.2726    0.0000 H       1  UNL1        0.0595
     17 H           6.0747   -0.5823    0.0000 H       1  UNL1        0.0595
     18 H           4.5981   -1.8100    0.0000 H       1  UNL1        0.2096
     19 H           8.3722    0.2731    0.0000 H       1  UNL1        0.0342
     20 H           8.5991    1.1200    0.0000 H       1  UNL1        0.0342
     21 H           7.7522    1.3469    0.0000 H       1  UNL1        0.0342
     22 H           1.6900    0.8469    0.0000 H       1  UNL1        0.0342
     23 H           1.4631    0.0000    0.0000 H       1  UNL1        0.0342
     24 H           2.3100   -0.2269    0.0000 H       1  UNL1        0.0342
@<TRIPOS>BOND
     1     1     6    1
     2     1     9    1
     3     2     7    1
     4     2    10    1
     5     3     8    1
     6     3    18    1
     7     4     9    2
     8     5    10    2
     9     6     7    1
    10     6     8    1
    11     6    13    1
    12     7    14    1
    13     7    15    1
    14     8    16    1
    15     8    17    1
    16     9    11    1
    17    10    12    1
    18    11    19    1
    19    11    20    1
    20    11    21    1
    21    12    22    1
    22    12    23    1
    23    12    24    1
