@<TRIPOS>MOLECULE
IMPHY013450
 77 81 0 0 0
SMALL
GASTEIGER

@<TRIPOS>ATOM
      1 O           8.1301   -2.4050    0.0000 O.3     1  UNL1       -0.3401
      2 O           7.2641    0.0950    0.0000 O.3     1  UNL1       -0.3313
      3 O           6.3981   -2.4050    0.0000 O.3     1  UNL1       -0.3405
      4 O           9.8622   -1.4050    0.0000 O.3     1  UNL1       -0.3863
      5 O           8.1301    1.5950    0.0000 O.3     1  UNL1       -0.4532
      6 O           9.8622    0.5950    0.0000 O.3     1  UNL1       -0.3829
      7 O           8.1301   -4.4050    0.0000 O.3     1  UNL1       -0.3841
      8 O           6.3981   -5.4050    0.0000 O.3     1  UNL1       -0.3864
      9 O           4.6660   -4.4050    0.0000 O.3     1  UNL1       -0.3865
     10 O           5.5320   -0.9050    0.0000 O.3     1  UNL1       -0.3924
     11 O           3.8000   -2.9050    0.0000 O.3     1  UNL1       -0.3924
     12 O           6.3981    3.5950    0.0000 O.2     1  UNL1       -0.4507
     13 O           6.3981    0.5950    0.0000 O.2     1  UNL1       -0.2830
     14 O           4.6497    0.5604    0.0000 O.3     1  UNL1       -0.5058
     15 O           2.8680    3.6192    0.0000 O.3     1  UNL1       -0.4949
     16 O          10.7282    3.0950    0.0000 O.3     1  UNL1       -0.5033
     17 O          10.7282    5.0950    0.0000 O.3     1  UNL1       -0.5033
     18 C           8.1301   -1.4050    0.0000 C.3     1  UNL1        0.1185
     19 C           8.9962   -0.9050    0.0000 C.3     1  UNL1        0.1155
     20 C           7.2641   -0.9050    0.0000 C.3     1  UNL1        0.1144
     21 C           7.2641   -2.9050    0.0000 C.3     1  UNL1        0.1884
     22 C           8.9962    0.0950    0.0000 C.3     1  UNL1        0.1454
     23 C           7.2641   -3.9050    0.0000 C.3     1  UNL1        0.1341
     24 C           6.3981   -4.4050    0.0000 C.3     1  UNL1        0.1141
     25 C           5.5320   -3.9050    0.0000 C.3     1  UNL1        0.1119
     26 C           5.5320   -2.9050    0.0000 C.3     1  UNL1        0.1130
     27 C           8.1301    0.5950    0.0000 C.3     1  UNL1        0.2311
     28 C           6.3981   -1.4050    0.0000 C.3     1  UNL1        0.0731
     29 C           4.6660   -2.4050    0.0000 C.3     1  UNL1        0.0730
     30 C           7.2641    2.0950    0.0000 C.ar    1  UNL1        0.2138
     31 C           7.2641    3.0950    0.0000 C.ar    1  UNL1        0.1810
     32 C           6.3981    1.5950    0.0000 C.ar    1  UNL1        0.2382
     33 C           5.5320    2.0950    0.0000 C.ar    1  UNL1        0.1092
     34 C           8.1301    3.5950    0.0000 C.ar    1  UNL1        0.0247
     35 C           5.5320    3.0950    0.0000 C.ar    1  UNL1        0.1465
     36 C           4.6381    1.5603    0.0000 C.ar    1  UNL1        0.1348
     37 C           4.6381    3.6297    0.0000 C.ar    1  UNL1        0.0233
     38 C           8.9962    3.0950    0.0000 C.ar    1  UNL1       -0.0057
     39 C           8.1301    4.5950    0.0000 C.ar    1  UNL1       -0.0473
     40 C           3.7320    2.0742    0.0000 C.ar    1  UNL1        0.0225
     41 C           3.7320    3.1158    0.0000 C.ar    1  UNL1        0.1271
     42 C           9.8622    3.5950    0.0000 C.ar    1  UNL1        0.1589
     43 C           8.9962    5.0950    0.0000 C.ar    1  UNL1       -0.0159
     44 C           9.8622    4.5950    0.0000 C.ar    1  UNL1        0.1583
     45 C           2.0000    3.1225    0.0000 C.3     1  UNL1        0.0788
     46 H           8.6671   -1.7150    0.0000 H       1  UNL1        0.0651
     47 H           9.5331   -0.5950    0.0000 H       1  UNL1        0.0648
     48 H           6.7272   -0.5950    0.0000 H       1  UNL1        0.0647
     49 H           7.2641   -2.2850    0.0000 H       1  UNL1        0.0938
     50 H           9.5331   -0.2150    0.0000 H       1  UNL1        0.0683
     51 H           7.8010   -3.5950    0.0000 H       1  UNL1        0.0671
     52 H           6.9350   -4.7150    0.0000 H       1  UNL1        0.0648
     53 H           4.9951   -3.5950    0.0000 H       1  UNL1        0.0647
     54 H           5.5320   -2.2850    0.0000 H       1  UNL1        0.0647
     55 H           8.6671    0.9050    0.0000 H       1  UNL1        0.1084
     56 H           5.9995   -1.8800    0.0000 H       1  UNL1        0.0584
     57 H           6.7966   -1.8800    0.0000 H       1  UNL1        0.0584
     58 H           5.0646   -1.9300    0.0000 H       1  UNL1        0.0584
     59 H           4.2675   -1.9300    0.0000 H       1  UNL1        0.0584
     60 H          10.3991   -1.0950    0.0000 H       1  UNL1        0.2100
     61 H           9.8622    1.2150    0.0000 H       1  UNL1        0.2102
     62 H           8.6671   -4.0950    0.0000 H       1  UNL1        0.2101
     63 H           6.9350   -5.7150    0.0000 H       1  UNL1        0.2100
     64 H           4.6660   -5.0250    0.0000 H       1  UNL1        0.2100
     65 H           4.9951   -1.2150    0.0000 H       1  UNL1        0.2095
     66 H           3.2631   -2.5950    0.0000 H       1  UNL1        0.2095
     67 H           4.6453    4.2496    0.0000 H       1  UNL1        0.0691
     68 H           8.9962    2.4750    0.0000 H       1  UNL1        0.0662
     69 H           7.5932    4.9050    0.0000 H       1  UNL1        0.0626
     70 H           3.1963    1.7621    0.0000 H       1  UNL1        0.0691
     71 H           8.9962    5.7150    0.0000 H       1  UNL1        0.0655
     72 H           4.1164    0.2442    0.0000 H       1  UNL1        0.2922
     73 H          11.2651    3.4050    0.0000 H       1  UNL1        0.2923
     74 H           1.6921    3.6606    0.0000 H       1  UNL1        0.0660
     75 H           1.4619    2.8146    0.0000 H       1  UNL1        0.0660
     76 H           2.3079    2.5844    0.0000 H       1  UNL1        0.0660
     77 H          10.7282    5.7150    0.0000 H       1  UNL1        0.2923
@<TRIPOS>BOND
     1    18     1    1
     2    21     1    1
     3     2    20    1
     4     2    27    1
     5     3    21    1
     6     3    26    1
     7     4    19    1
     8     4    60    1
     9    27     5    1
    10     5    30    1
    11     6    22    1
    12     6    61    1
    13    23     7    1
    14     7    62    1
    15     8    24    1
    16     8    63    1
    17    25     9    1
    18     9    64    1
    19    10    28    1
    20    10    65    1
    21    11    29    1
    22    11    66    1
    23    12    31   ar
    24    12    35   ar
    25    13    32    2
    26    14    36    1
    27    14    72    1
    28    15    41    1
    29    15    45    1
    30    16    42    1
    31    16    73    1
    32    17    44    1
    33    17    77    1
    34    18    19    1
    35    18    20    1
    36    18    46    1
    37    19    22    1
    38    19    47    1
    39    20    28    1
    40    20    48    1
    41    21    23    1
    42    21    49    1
    43    22    27    1
    44    22    50    1
    45    23    24    1
    46    23    51    1
    47    24    25    1
    48    24    52    1
    49    25    26    1
    50    25    53    1
    51    26    29    1
    52    26    54    1
    53    27    55    1
    54    28    56    1
    55    28    57    1
    56    29    58    1
    57    29    59    1
    58    30    31   ar
    59    30    32   ar
    60    31    34    1
    61    32    33   ar
    62    33    35   ar
    63    33    36   ar
    64    34    38   ar
    65    34    39   ar
    66    35    37   ar
    67    36    40   ar
    68    37    41   ar
    69    37    67    1
    70    38    42   ar
    71    38    68    1
    72    39    43   ar
    73    39    69    1
    74    40    41   ar
    75    40    70    1
    76    42    44   ar
    77    43    44   ar
    78    43    71    1
    79    45    74    1
    80    45    75    1
    81    45    76    1
