@<TRIPOS>MOLECULE
IMPHY000223
 22 23 0 0 0
SMALL
GASTEIGER

@<TRIPOS>ATOM
      1 O           3.7320   -1.8450    0.0000 O.2     1  UNL1       -0.5058
      2 O           3.7320    2.1550    0.0000 O.2     1  UNL1       -0.2832
      3 O           2.0000    1.1550    0.0000 O.2     1  UNL1       -0.2834
      4 C           4.5981   -0.3450    0.0000 C.ar    1  UNL1        0.0277
      5 C           4.5981    0.6550    0.0000 C.ar    1  UNL1        0.0362
      6 C           2.8660   -0.3450    0.0000 C.2     1  UNL1        0.0420
      7 C           3.7320   -0.8450    0.0000 C.2     1  UNL1        0.1313
      8 C           3.7320    1.1550    0.0000 C.2     1  UNL1        0.2334
      9 C           2.8660    0.6550    0.0000 C.2     1  UNL1        0.2322
     10 C           5.4920   -0.8797    0.0000 C.ar    1  UNL1       -0.0504
     11 C           5.4920    1.1897    0.0000 C.ar    1  UNL1       -0.0501
     12 C           2.0000   -0.8450    0.0000 C.3     1  UNL1       -0.0324
     13 C           6.3981   -0.3658    0.0000 C.ar    1  UNL1       -0.0611
     14 C           6.3981    0.6758    0.0000 C.ar    1  UNL1       -0.0610
     15 H           5.4848   -1.4996    0.0000 H       1  UNL1        0.0625
     16 H           5.4848    1.8096    0.0000 H       1  UNL1        0.0625
     17 H           1.6900   -0.3081    0.0000 H       1  UNL1        0.0280
     18 H           1.4631   -1.1550    0.0000 H       1  UNL1        0.0280
     19 H           2.3100   -1.3819    0.0000 H       1  UNL1        0.0280
     20 H           6.9338   -0.6779    0.0000 H       1  UNL1        0.0618
     21 H           6.9338    0.9879    0.0000 H       1  UNL1        0.0618
     22 H           3.1951   -2.1550    0.0000 H       1  UNL1        0.2922
@<TRIPOS>BOND
     1     1     7    1
     2     1    22    1
     3     2     8    2
     4     3     9    2
     5     4     5   ar
     6     4     7    1
     7     4    10   ar
     8     5     8    1
     9     5    11   ar
    10     6     7    2
    11     6     9    1
    12     6    12    1
    13     8     9    1
    14    10    13   ar
    15    10    15    1
    16    11    14   ar
    17    11    16    1
    18    12    17    1
    19    12    18    1
    20    12    19    1
    21    13    14   ar
    22    13    20    1
    23    14    21    1
