@<TRIPOS>MOLECULE
IMPHY005286
 74 78 0 0 0
SMALL
GASTEIGER

@<TRIPOS>ATOM
      1 O           7.7440   -3.9413    0.0000 O.3     1  UNL1       -0.3313
      2 O           5.1396    4.6313    0.0000 O.3     1  UNL1       -0.3313
      3 O           9.4760   -3.9413    0.0000 O.3     1  UNL1       -0.4572
      4 O           5.9998    3.1280    0.0000 O.3     1  UNL1       -0.4607
      5 O           7.7440   -6.9413    0.0000 O.3     1  UNL1       -0.3864
      6 O           6.0119   -5.9413    0.0000 O.3     1  UNL1       -0.3865
      7 O           2.5357    3.1413    0.0000 O.3     1  UNL1       -0.3864
      8 O           2.5434    5.1413    0.0000 O.3     1  UNL1       -0.3865
      9 O           9.4760   -5.9413    0.0000 O.3     1  UNL1       -0.3829
     10 O           4.2639    2.1347    0.0000 O.3     1  UNL1       -0.3829
     11 O           7.7440    0.0587    0.0000 O.3     1  UNL1       -0.4830
     12 O           5.1459   -4.4413    0.0000 O.3     1  UNL1       -0.3924
     13 O           5.1473    6.6313    0.0000 O.3     1  UNL1       -0.3924
     14 O          11.2081   -2.9413    0.0000 O.3     1  UNL1       -0.5033
     15 O           5.1459   -1.4413    0.0000 O.2     1  UNL1       -0.2918
     16 C           7.7440   -5.9413    0.0000 C.3     1  UNL1        0.1152
     17 C           6.8779   -5.4413    0.0000 C.3     1  UNL1        0.1120
     18 C           3.4037    3.6380    0.0000 C.3     1  UNL1        0.1152
     19 C           3.4075    4.6380    0.0000 C.3     1  UNL1        0.1120
     20 C           8.6100   -5.4413    0.0000 C.3     1  UNL1        0.1454
     21 C           6.8779   -4.4413    0.0000 C.3     1  UNL1        0.1140
     22 C           4.2678    3.1346    0.0000 C.3     1  UNL1        0.1454
     23 C           4.2755    5.1346    0.0000 C.3     1  UNL1        0.1140
     24 C           8.6100   -4.4413    0.0000 C.3     1  UNL1        0.2310
     25 C           5.1357    3.6313    0.0000 C.3     1  UNL1        0.2308
     26 C           6.0119   -3.9413    0.0000 C.3     1  UNL1        0.0731
     27 C           4.2793    6.1346    0.0000 C.3     1  UNL1        0.0731
     28 C           7.7440   -0.9413    0.0000 C.3     1  UNL1        0.1323
     29 C           9.4760   -2.9413    0.0000 C.ar    1  UNL1        0.1655
     30 C           5.9960    2.1280    0.0000 C.ar    1  UNL1        0.1275
     31 C           8.6100   -1.4413    0.0000 C.ar    1  UNL1       -0.0033
     32 C           6.8779   -1.4413    0.0000 C.3     1  UNL1        0.0519
     33 C           6.8779    0.5587    0.0000 C.ar    1  UNL1        0.1353
     34 C           8.6100   -2.4413    0.0000 C.ar    1  UNL1       -0.0095
     35 C           6.0119    0.0587    0.0000 C.ar    1  UNL1        0.0594
     36 C           6.8940    1.6002    0.0000 C.ar    1  UNL1        0.0226
     37 C           6.0119   -0.9413    0.0000 C.2     1  UNL1        0.1705
     38 C           5.0939    1.6072    0.0000 C.ar    1  UNL1       -0.0189
     39 C          10.3420   -2.4413    0.0000 C.ar    1  UNL1        0.1586
     40 C           5.1019    0.5656    0.0000 C.ar    1  UNL1       -0.0443
     41 C           9.4760   -0.9413    0.0000 C.ar    1  UNL1       -0.0514
     42 C          10.3420   -1.4413    0.0000 C.ar    1  UNL1       -0.0161
     43 H           7.2070   -6.2513    0.0000 H       1  UNL1        0.0648
     44 H           6.3410   -5.1313    0.0000 H       1  UNL1        0.0647
     45 H           3.4013    3.0180    0.0000 H       1  UNL1        0.0648
     46 H           2.8694    4.3300    0.0000 H       1  UNL1        0.0647
     47 H           9.1469   -5.1313    0.0000 H       1  UNL1        0.0683
     48 H           6.8779   -3.8213    0.0000 H       1  UNL1        0.0647
     49 H           4.8035    2.8226    0.0000 H       1  UNL1        0.0683
     50 H           4.8136    5.4426    0.0000 H       1  UNL1        0.0647
     51 H           8.6100   -3.8213    0.0000 H       1  UNL1        0.1084
     52 H           5.6738    3.9392    0.0000 H       1  UNL1        0.1084
     53 H           6.4104   -3.4663    0.0000 H       1  UNL1        0.0584
     54 H           5.6134   -3.4663    0.0000 H       1  UNL1        0.0584
     55 H           4.0695    6.7180    0.0000 H       1  UNL1        0.0584
     56 H           3.6684    6.0293    0.0000 H       1  UNL1        0.0584
     57 H           7.2070   -7.2513    0.0000 H       1  UNL1        0.2100
     58 H           6.0119   -6.5613    0.0000 H       1  UNL1        0.2100
     59 H           2.0000    3.4534    0.0000 H       1  UNL1        0.2100
     60 H           2.5458    5.7613    0.0000 H       1  UNL1        0.2100
     61 H           9.4760   -6.5613    0.0000 H       1  UNL1        0.2102
     62 H           3.7258    1.8267    0.0000 H       1  UNL1        0.2102
     63 H           7.7440   -1.5613    0.0000 H       1  UNL1        0.0789
     64 H           6.4794   -1.9162    0.0000 H       1  UNL1        0.0385
     65 H           7.2765   -1.9162    0.0000 H       1  UNL1        0.0385
     66 H           8.0730   -2.7513    0.0000 H       1  UNL1        0.0659
     67 H           7.4345    1.9040    0.0000 H       1  UNL1        0.0691
     68 H           4.6090   -4.1313    0.0000 H       1  UNL1        0.2095
     69 H           5.1497    7.2513    0.0000 H       1  UNL1        0.2095
     70 H           4.5558    1.9151    0.0000 H       1  UNL1        0.0654
     71 H           4.5686    0.2494    0.0000 H       1  UNL1        0.0627
     72 H           9.4760   -0.3213    0.0000 H       1  UNL1        0.0623
     73 H          10.8790   -1.1313    0.0000 H       1  UNL1        0.0655
     74 H          11.7450   -2.6313    0.0000 H       1  UNL1        0.2923
@<TRIPOS>BOND
     1     1    21    1
     2     1    24    1
     3     2    23    1
     4     2    25    1
     5    24     3    1
     6     3    29    1
     7    25     4    1
     8     4    30    1
     9    16     5    1
    10     5    57    1
    11    17     6    1
    12     6    58    1
    13    18     7    1
    14     7    59    1
    15    19     8    1
    16     8    60    1
    17    20     9    1
    18     9    61    1
    19    22    10    1
    20    10    62    1
    21    11    28    1
    22    11    33    1
    23    12    26    1
    24    12    68    1
    25    13    27    1
    26    13    69    1
    27    14    39    1
    28    14    74    1
    29    15    37    2
    30    16    17    1
    31    16    20    1
    32    16    43    1
    33    17    21    1
    34    17    44    1
    35    18    19    1
    36    18    22    1
    37    18    45    1
    38    19    23    1
    39    19    46    1
    40    20    24    1
    41    20    47    1
    42    21    26    1
    43    21    48    1
    44    22    25    1
    45    22    49    1
    46    23    27    1
    47    23    50    1
    48    24    51    1
    49    25    52    1
    50    26    53    1
    51    26    54    1
    52    27    55    1
    53    27    56    1
    54    28    31    1
    55    28    32    1
    56    28    63    1
    57    29    34   ar
    58    29    39   ar
    59    30    36   ar
    60    30    38   ar
    61    31    34   ar
    62    31    41   ar
    63    32    37    1
    64    32    64    1
    65    32    65    1
    66    33    35   ar
    67    33    36   ar
    68    34    66    1
    69    35    37    1
    70    35    40   ar
    71    36    67    1
    72    38    40   ar
    73    38    70    1
    74    39    42   ar
    75    40    71    1
    76    41    42   ar
    77    41    72    1
    78    42    73    1
