@<TRIPOS>MOLECULE
IMPHY005787
 33 35 0 0 0
SMALL
GASTEIGER

@<TRIPOS>ATOM
      1 O           5.5301   -1.4502    0.0000 O.2     1  UNL1       -0.4618
      2 O           3.7817    1.5844    0.0000 O.3     1  UNL1       -0.4942
      3 O           5.5301    1.5498    0.0000 O.2     1  UNL1       -0.2863
      4 O           2.0000   -1.4744    0.0000 O.3     1  UNL1       -0.5065
      5 O           9.8602    2.0498    0.0000 O.3     1  UNL1       -0.5068
      6 C           4.6641    0.0498    0.0000 C.ar    1  UNL1        0.1063
      7 C           6.3961    0.0498    0.0000 C.ar    1  UNL1        0.0644
      8 C           4.6641   -0.9502    0.0000 C.ar    1  UNL1        0.1454
      9 C           5.5301    0.5498    0.0000 C.ar    1  UNL1        0.2037
     10 C           3.7702    0.5844    0.0000 C.ar    1  UNL1        0.1379
     11 C           7.2622    0.5498    0.0000 C.ar    1  UNL1       -0.0110
     12 C           3.7702   -1.4849    0.0000 C.ar    1  UNL1        0.0231
     13 C           6.3961   -0.9502    0.0000 C.ar    1  UNL1        0.1038
     14 C           2.8641    0.0706    0.0000 C.ar    1  UNL1        0.0225
     15 C           2.8641   -0.9710    0.0000 C.ar    1  UNL1        0.1239
     16 C           8.1282    0.0498    0.0000 C.ar    1  UNL1       -0.0504
     17 C           7.2622    1.5498    0.0000 C.ar    1  UNL1       -0.0504
     18 C           8.9942    0.5498    0.0000 C.ar    1  UNL1       -0.0196
     19 C           8.1282    2.0498    0.0000 C.ar    1  UNL1       -0.0196
     20 C           8.9942    1.5498    0.0000 C.ar    1  UNL1        0.1169
     21 C           2.9215    2.0944    0.0000 C.3     1  UNL1        0.0788
     22 H           3.7773   -2.1048    0.0000 H       1  UNL1        0.0691
     23 H           6.9331   -1.2602    0.0000 H       1  UNL1        0.1037
     24 H           2.3284    0.3827    0.0000 H       1  UNL1        0.0691
     25 H           8.1282   -0.5702    0.0000 H       1  UNL1        0.0625
     26 H           6.7252    1.8598    0.0000 H       1  UNL1        0.0625
     27 H           9.5312    0.2398    0.0000 H       1  UNL1        0.0654
     28 H           8.1282    2.6698    0.0000 H       1  UNL1        0.0654
     29 H           3.2377    2.6277    0.0000 H       1  UNL1        0.0660
     30 H           2.3882    2.4106    0.0000 H       1  UNL1        0.0660
     31 H           2.6054    1.5610    0.0000 H       1  UNL1        0.0660
     32 H           2.0024   -2.0944    0.0000 H       1  UNL1        0.2921
     33 H          10.3972    1.7398    0.0000 H       1  UNL1        0.2921
@<TRIPOS>BOND
     1     1     8   ar
     2     1    13   ar
     3     2    10    1
     4     2    21    1
     5     3     9    2
     6     4    15    1
     7     4    32    1
     8     5    20    1
     9     5    33    1
    10     6     8   ar
    11     6     9   ar
    12     6    10   ar
    13     7     9   ar
    14     7    11    1
    15     7    13   ar
    16     8    12   ar
    17    10    14   ar
    18    11    16   ar
    19    11    17   ar
    20    12    15   ar
    21    12    22    1
    22    13    23    1
    23    14    15   ar
    24    14    24    1
    25    16    18   ar
    26    16    25    1
    27    17    19   ar
    28    17    26    1
    29    18    20   ar
    30    18    27    1
    31    19    20   ar
    32    19    28    1
    33    21    29    1
    34    21    30    1
    35    21    31    1
