@<TRIPOS>MOLECULE
IMPHY010972
 55 58 0 0 0
SMALL
GASTEIGER

@<TRIPOS>ATOM
      1 O           5.1350   -1.6725    0.0000 O.3     1  UNL1       -0.3313
      2 O           6.8671   -1.6725    0.0000 O.3     1  UNL1       -0.4569
      3 O           5.1350   -4.6725    0.0000 O.3     1  UNL1       -0.3864
      4 O           3.4030   -3.6725    0.0000 O.3     1  UNL1       -0.3865
      5 O           6.8671   -3.6725    0.0000 O.3     1  UNL1       -0.3829
      6 O           2.5369   -2.1725    0.0000 O.3     1  UNL1       -0.3924
      7 O           8.6431    1.3343    0.0000 O.2     1  UNL1       -0.4544
      8 O           5.1350   -0.6725    0.0000 O.3     1  UNL1       -0.4885
      9 O           5.1350    1.3275    0.0000 O.3     1  UNL1       -0.5027
     10 O           5.9793    2.8589    0.0000 O.2     1  UNL1       -0.2869
     11 O          12.1229    4.3625    0.0000 O.3     1  UNL1       -0.5068
     12 C           5.1350   -3.6725    0.0000 C.3     1  UNL1        0.1152
     13 C           4.2690   -3.1725    0.0000 C.3     1  UNL1        0.1120
     14 C           6.0010   -3.1725    0.0000 C.3     1  UNL1        0.1454
     15 C           4.2690   -2.1725    0.0000 C.3     1  UNL1        0.1140
     16 C           6.0010   -2.1725    0.0000 C.3     1  UNL1        0.2310
     17 C           3.4030   -1.6725    0.0000 C.3     1  UNL1        0.0731
     18 C           6.8671   -0.6725    0.0000 C.ar    1  UNL1        0.1726
     19 C           6.0010   -0.1725    0.0000 C.ar    1  UNL1        0.2044
     20 C           7.7331   -0.1725    0.0000 C.ar    1  UNL1        0.0271
     21 C           7.7331    0.8275    0.0000 C.ar    1  UNL1        0.1465
     22 C           6.8671    1.3275    0.0000 C.ar    1  UNL1        0.1091
     23 C           6.0010    0.8275    0.0000 C.ar    1  UNL1        0.1768
     24 C           6.8510    2.3690    0.0000 C.ar    1  UNL1        0.1967
     25 C           8.6511    2.3759    0.0000 C.ar    1  UNL1        0.1392
     26 C           7.7490    2.8967    0.0000 C.ar    1  UNL1        0.0288
     27 C           9.5191    2.8726    0.0000 C.ar    1  UNL1        0.0176
     28 C           4.2690   -0.1725    0.0000 C.3     1  UNL1        0.0791
     29 C          10.3832    2.3692    0.0000 C.ar    1  UNL1       -0.0476
     30 C           9.5229    3.8726    0.0000 C.ar    1  UNL1       -0.0476
     31 C          11.2511    2.8659    0.0000 C.ar    1  UNL1       -0.0195
     32 C          10.3909    4.3692    0.0000 C.ar    1  UNL1       -0.0195
     33 C          11.2550    3.8659    0.0000 C.ar    1  UNL1        0.1169
     34 H           5.6720   -3.9825    0.0000 H       1  UNL1        0.0648
     35 H           4.2690   -3.7925    0.0000 H       1  UNL1        0.0647
     36 H           6.5380   -2.8625    0.0000 H       1  UNL1        0.0683
     37 H           4.2690   -1.5525    0.0000 H       1  UNL1        0.0647
     38 H           6.0010   -1.5525    0.0000 H       1  UNL1        0.1084
     39 H           3.8015   -1.1976    0.0000 H       1  UNL1        0.0584
     40 H           3.0044   -1.1976    0.0000 H       1  UNL1        0.0584
     41 H           4.5981   -4.9825    0.0000 H       1  UNL1        0.2100
     42 H           3.4030   -4.2925    0.0000 H       1  UNL1        0.2100
     43 H           6.8671   -4.2925    0.0000 H       1  UNL1        0.2102
     44 H           2.0000   -1.8625    0.0000 H       1  UNL1        0.2095
     45 H           8.2700   -0.4825    0.0000 H       1  UNL1        0.0692
     46 H           7.7466    3.5167    0.0000 H       1  UNL1        0.0693
     47 H           4.5981    1.0175    0.0000 H       1  UNL1        0.2923
     48 H           4.5790    0.3644    0.0000 H       1  UNL1        0.0660
     49 H           3.7320    0.1375    0.0000 H       1  UNL1        0.0660
     50 H           3.9590   -0.7095    0.0000 H       1  UNL1        0.0660
     51 H          10.3808    1.7492    0.0000 H       1  UNL1        0.0626
     52 H           8.9872    4.1846    0.0000 H       1  UNL1        0.0626
     53 H          11.7868    2.5538    0.0000 H       1  UNL1        0.0654
     54 H          10.3933    4.9892    0.0000 H       1  UNL1        0.0654
     55 H          12.1253    4.9825    0.0000 H       1  UNL1        0.2921
@<TRIPOS>BOND
     1     1    15    1
     2     1    16    1
     3    16     2    1
     4     2    18    1
     5    12     3    1
     6     3    41    1
     7    13     4    1
     8     4    42    1
     9    14     5    1
    10     5    43    1
    11     6    17    1
    12     6    44    1
    13     7    21   ar
    14     7    25   ar
    15     8    19    1
    16     8    28    1
    17     9    23    1
    18     9    47    1
    19    10    24    2
    20    11    33    1
    21    11    55    1
    22    12    13    1
    23    12    14    1
    24    12    34    1
    25    13    15    1
    26    13    35    1
    27    14    16    1
    28    14    36    1
    29    15    17    1
    30    15    37    1
    31    16    38    1
    32    17    39    1
    33    17    40    1
    34    18    19   ar
    35    18    20   ar
    36    19    23   ar
    37    20    21   ar
    38    20    45    1
    39    21    22   ar
    40    22    23   ar
    41    22    24   ar
    42    24    26   ar
    43    25    26   ar
    44    25    27    1
    45    26    46    1
    46    27    29   ar
    47    27    30   ar
    48    28    48    1
    49    28    49    1
    50    28    50    1
    51    29    31   ar
    52    29    51    1
    53    30    32   ar
    54    30    52    1
    55    31    33   ar
    56    31    53    1
    57    32    33   ar
    58    32    54    1
