@<TRIPOS>MOLECULE
IMPHY017781
 19 20 0 0 0
SMALL
GASTEIGER

@<TRIPOS>ATOM
      1 N           4.6783   -1.1077    0.0000 N.ar    1  UNL1       -0.3606
      2 C           3.7320    0.1970    0.0000 C.ar    1  UNL1        0.0026
      3 C           3.7320   -0.8030    0.0000 C.ar    1  UNL1        0.0467
      4 C           2.8660    0.6970    0.0000 C.ar    1  UNL1       -0.0413
      5 C           4.6783    0.5018    0.0000 C.ar    1  UNL1       -0.0364
      6 C           2.8660   -1.3030    0.0000 C.ar    1  UNL1       -0.0378
      7 C           2.0000    0.1970    0.0000 C.ar    1  UNL1       -0.0582
      8 C           5.2619   -0.3030    0.0000 C.ar    1  UNL1        0.0027
      9 C           2.0000   -0.8030    0.0000 C.ar    1  UNL1       -0.0595
     10 C           2.8660    1.6970    0.0000 C.3     1  UNL1       -0.0391
     11 H           4.8709    1.0911    0.0000 H       1  UNL1        0.0639
     12 H           4.8709   -1.6970    0.0000 H       1  UNL1        0.1653
     13 H           2.8660   -1.9230    0.0000 H       1  UNL1        0.0638
     14 H           1.4631    0.5070    0.0000 H       1  UNL1        0.0620
     15 H           5.8819   -0.3030    0.0000 H       1  UNL1        0.0807
     16 H           1.4631   -1.1130    0.0000 H       1  UNL1        0.0618
     17 H           3.4860    1.6970    0.0000 H       1  UNL1        0.0278
     18 H           2.8660    2.3170    0.0000 H       1  UNL1        0.0278
     19 H           2.2460    1.6970    0.0000 H       1  UNL1        0.0278
@<TRIPOS>BOND
     1     1     3   ar
     2     1     8   ar
     3     1    12    1
     4     2     3   ar
     5     2     4   ar
     6     2     5   ar
     7     3     6   ar
     8     4     7   ar
     9     4    10    1
    10     5     8   ar
    11     5    11    1
    12     6     9   ar
    13     6    13    1
    14     7     9   ar
    15     7    14    1
    16     8    15    1
    17     9    16    1
    18    10    17    1
    19    10    18    1
    20    10    19    1
