@<TRIPOS>MOLECULE
IMPHY002634
 34 33 0 0 0
SMALL
GASTEIGER

@<TRIPOS>ATOM
      1 O           8.0622    0.5000    0.0000 O.3     1  UNL1       -0.4588
      2 O           8.9282   -1.0000    0.0000 O.2     1  UNL1       -0.2511
      3 C           7.1962    0.0000    0.0000 C.3     1  UNL1        0.1080
      4 C           6.3301   -0.5000    0.0000 C.3     1  UNL1       -0.0131
      5 C           5.4641    0.0000    0.0000 C.3     1  UNL1       -0.0455
      6 C           6.6962    0.8660    0.0000 C.3     1  UNL1       -0.0251
      7 C           7.6962   -0.8660    0.0000 C.3     1  UNL1       -0.0251
      8 C           4.5981   -0.5000    0.0000 C.3     1  UNL1       -0.0281
      9 C           3.7320    0.0000    0.0000 C.2     1  UNL1       -0.0550
     10 C           8.9282    0.0000    0.0000 C.2     1  UNL1        0.3044
     11 C           2.8660   -0.5000    0.0000 C.2     1  UNL1       -0.0662
     12 C           3.7320    1.0000    0.0000 C.2     1  UNL1       -0.0955
     13 C           9.7942    0.5000    0.0000 C.3     1  UNL1        0.0333
     14 C           2.0000    0.0000    0.0000 C.2     1  UNL1       -0.0985
     15 H           5.9316   -0.9749    0.0000 H       1  UNL1        0.0304
     16 H           6.7287   -0.9749    0.0000 H       1  UNL1        0.0304
     17 H           5.8626    0.4749    0.0000 H       1  UNL1        0.0270
     18 H           5.0656    0.4749    0.0000 H       1  UNL1        0.0270
     19 H           7.2331    1.1760    0.0000 H       1  UNL1        0.0268
     20 H           7.1592   -1.1760    0.0000 H       1  UNL1        0.0268
     21 H           8.0062   -1.4030    0.0000 H       1  UNL1        0.0268
     22 H           8.2331   -0.5560    0.0000 H       1  UNL1        0.0268
     23 H           6.3862    1.4030    0.0000 H       1  UNL1        0.0268
     24 H           6.1592    0.5560    0.0000 H       1  UNL1        0.0268
     25 H           4.1996   -0.9749    0.0000 H       1  UNL1        0.0313
     26 H           4.9966   -0.9749    0.0000 H       1  UNL1        0.0313
     27 H           2.8660   -1.1200    0.0000 H       1  UNL1        0.0614
     28 H           4.2690    1.3100    0.0000 H       1  UNL1        0.0537
     29 H           3.1951    1.3100    0.0000 H       1  UNL1        0.0537
     30 H          10.1042   -0.0369    0.0000 H       1  UNL1        0.0342
     31 H          10.3312    0.8100    0.0000 H       1  UNL1        0.0342
     32 H           9.4842    1.0369    0.0000 H       1  UNL1        0.0342
     33 H           2.0000    0.6200    0.0000 H       1  UNL1        0.0535
     34 H           1.4631   -0.3100    0.0000 H       1  UNL1        0.0535
@<TRIPOS>BOND
     1     1     3    1
     2     1    10    1
     3     2    10    2
     4     3     4    1
     5     3     6    1
     6     3     7    1
     7     4     5    1
     8     4    15    1
     9     4    16    1
    10     5     8    1
    11     5    17    1
    12     5    18    1
    13     6    19    1
    14     6    23    1
    15     6    24    1
    16     7    20    1
    17     7    21    1
    18     7    22    1
    19     8     9    1
    20     8    25    1
    21     8    26    1
    22     9    11    1
    23     9    12    2
    24    10    13    1
    25    11    14    2
    26    11    27    1
    27    12    28    1
    28    12    29    1
    29    13    30    1
    30    13    31    1
    31    13    32    1
    32    14    33    1
    33    14    34    1
