@<TRIPOS>MOLECULE
IMPHY007980
 71 75 0 0 0
SMALL
GASTEIGER

@<TRIPOS>ATOM
      1 O           4.8609   -1.0775    0.0000 O.3     1  UNL1       -0.4839
      2 O           5.5288    2.4292    0.0000 O.3     1  UNL1       -0.5055
      3 O           2.2287    1.1487    0.0000 O.3     1  UNL1       -0.5051
      4 O           2.0013   -0.6146    0.0000 O.2     1  UNL1       -0.2955
      5 O           2.5176    2.9030    0.0000 O.2     1  UNL1       -0.2955
      6 C           7.5436   -1.5090    0.0000 C.3     1  UNL1       -0.0253
      7 C           6.6629   -1.0775    0.0000 C.3     1  UNL1        0.0087
      8 C           8.4802   -1.8017    0.0000 C.3     1  UNL1       -0.0283
      9 C           7.7580   -2.4660    0.0000 C.3     1  UNL1       -0.0319
     10 C           5.7619   -1.5114    0.0000 C.3     1  UNL1        0.1168
     11 C           6.8854   -0.1026    0.0000 C.3     1  UNL1       -0.0182
     12 C           7.1455   -3.2320    0.0000 C.3     1  UNL1       -0.0491
     13 C           5.5501   -2.4690    0.0000 C.3     1  UNL1       -0.0036
     14 C           5.6210   -0.8861    0.0000 C.3     1  UNL1       -0.0118
     15 C           6.2445   -0.1043    0.0000 C.3     1  UNL1       -0.0430
     16 C           6.1647   -3.2334    0.0000 C.3     1  UNL1       -0.0466
     17 C           6.2619    0.6793    0.0000 C.3     1  UNL1       -0.0029
     18 C           9.1574   -2.5375    0.0000 C.3     1  UNL1       -0.0593
     19 C           8.7788   -0.8474    0.0000 C.3     1  UNL1       -0.0593
     20 C           7.5089    0.6793    0.0000 C.3     1  UNL1       -0.0586
     21 C           5.2619    0.6793    0.0000 C.ar    1  UNL1        0.0409
     22 C           4.5764   -2.6968    0.0000 C.3     1  UNL1       -0.0588
     23 C           6.6958    1.5802    0.0000 C.3     1  UNL1       -0.0431
     24 C           4.6384   -0.1026    0.0000 C.ar    1  UNL1        0.1420
     25 C           7.6930    1.6550    0.0000 C.3     1  UNL1       -0.0462
     26 C           4.8964    1.6547    0.0000 C.ar    1  UNL1        0.1375
     27 C           3.6062    0.0368    0.0000 C.ar    1  UNL1        0.0983
     28 C           3.8676    1.8178    0.0000 C.ar    1  UNL1        0.0980
     29 C           3.2181    1.0035    0.0000 C.ar    1  UNL1        0.1443
     30 C           8.1269    2.5560    0.0000 C.3     1  UNL1       -0.0626
     31 C           8.2563    0.8287    0.0000 C.3     1  UNL1       -0.0626
     32 C           2.9917   -0.7522    0.0000 C.2     1  UNL1        0.1573
     33 C           3.5058    2.7501    0.0000 C.2     1  UNL1        0.1573
     34 H           7.7732   -0.9330    0.0000 H       1  UNL1        0.0313
     35 H           7.2224   -0.8104    0.0000 H       1  UNL1        0.0348
     36 H           8.2113   -2.8890    0.0000 H       1  UNL1        0.0309
     37 H           7.0078   -3.8366    0.0000 H       1  UNL1        0.0268
     38 H           7.7040   -3.5013    0.0000 H       1  UNL1        0.0268
     39 H           5.3481   -3.0552    0.0000 H       1  UNL1        0.0337
     40 H           5.2349   -0.4010    0.0000 H       1  UNL1        0.0304
     41 H           5.0619   -1.1541    0.0000 H       1  UNL1        0.0304
     42 H           6.3813    0.5004    0.0000 H       1  UNL1        0.0272
     43 H           5.6856    0.1642    0.0000 H       1  UNL1        0.0272
     44 H           5.6070   -3.5041    0.0000 H       1  UNL1        0.0269
     45 H           6.3040   -3.8375    0.0000 H       1  UNL1        0.0269
     46 H           6.8780    0.7487    0.0000 H       1  UNL1        0.0357
     47 H           9.3705   -1.0325    0.0000 H       1  UNL1        0.0235
     48 H           8.9639   -0.2556    0.0000 H       1  UNL1        0.0235
     49 H           8.1871   -0.6622    0.0000 H       1  UNL1        0.0235
     50 H           8.7012   -2.9574    0.0000 H       1  UNL1        0.0235
     51 H           9.5773   -2.9937    0.0000 H       1  UNL1        0.0235
     52 H           9.6136   -2.1177    0.0000 H       1  UNL1        0.0235
     53 H           7.9936    0.2927    0.0000 H       1  UNL1        0.0235
     54 H           7.8954    1.1640    0.0000 H       1  UNL1        0.0235
     55 H           7.0242    1.0658    0.0000 H       1  UNL1        0.0235
     56 H           4.4352   -2.0931    0.0000 H       1  UNL1        0.0234
     57 H           3.9727   -2.8380    0.0000 H       1  UNL1        0.0234
     58 H           4.7176   -3.3005    0.0000 H       1  UNL1        0.0234
     59 H           6.7575    2.1972    0.0000 H       1  UNL1        0.0274
     60 H           6.0990    1.7482    0.0000 H       1  UNL1        0.0274
     61 H           8.3113    1.7013    0.0000 H       1  UNL1        0.0296
     62 H           8.6855    2.2869    0.0000 H       1  UNL1        0.0232
     63 H           8.3959    3.1146    0.0000 H       1  UNL1        0.0232
     64 H           7.5683    2.8250    0.0000 H       1  UNL1        0.0232
     65 H           7.7440    0.4795    0.0000 H       1  UNL1        0.0232
     66 H           8.6056    0.3165    0.0000 H       1  UNL1        0.0232
     67 H           8.7686    1.1780    0.0000 H       1  UNL1        0.0232
     68 H           3.2249   -1.3267    0.0000 H       1  UNL1        0.1084
     69 H           5.3090    3.0090    0.0000 H       1  UNL1        0.2922
     70 H           3.8943    3.2334    0.0000 H       1  UNL1        0.1084
     71 H           2.0000    1.7250    0.0000 H       1  UNL1        0.2922
@<TRIPOS>BOND
     1     1    10    1
     2     1    24    1
     3     2    26    1
     4     2    69    1
     5     3    29    1
     6     3    71    1
     7     4    32    2
     8     5    33    2
     9     6     7    1
    10     6     8    1
    11     6     9    1
    12     6    34    1
    13     7    10    1
    14     7    11    1
    15     7    35    1
    16     8     9    1
    17     8    18    1
    18     8    19    1
    19     9    12    1
    20     9    36    1
    21    10    13    1
    22    10    14    1
    23    11    15    1
    24    11    17    1
    25    11    20    1
    26    12    16    1
    27    12    37    1
    28    12    38    1
    29    13    16    1
    30    13    22    1
    31    13    39    1
    32    14    15    1
    33    14    40    1
    34    14    41    1
    35    15    42    1
    36    15    43    1
    37    16    44    1
    38    16    45    1
    39    17    21    1
    40    17    23    1
    41    17    46    1
    42    18    50    1
    43    18    51    1
    44    18    52    1
    45    19    47    1
    46    19    48    1
    47    19    49    1
    48    20    53    1
    49    20    54    1
    50    20    55    1
    51    21    24   ar
    52    21    26   ar
    53    22    56    1
    54    22    57    1
    55    22    58    1
    56    23    25    1
    57    23    59    1
    58    23    60    1
    59    24    27   ar
    60    25    30    1
    61    25    31    1
    62    25    61    1
    63    26    28   ar
    64    27    29   ar
    65    27    32    1
    66    28    29   ar
    67    28    33    1
    68    30    62    1
    69    30    63    1
    70    30    64    1
    71    31    65    1
    72    31    66    1
    73    31    67    1
    74    32    68    1
    75    33    70    1
