@<TRIPOS>MOLECULE
IMPHY001111
 57 60 0 0 0
SMALL
GASTEIGER

@<TRIPOS>ATOM
      1 O           4.5981    3.2500    0.0000 O.3     1  UNL1       -0.4914
      2 O           2.8660    2.2500    0.0000 O.3     1  UNL1       -0.4915
      3 O           2.8660   -2.7500    0.0000 O.3     1  UNL1       -0.4951
      4 N           8.0622   -0.7500    0.0000 N.3     1  UNL1       -0.2949
      5 C           8.0622    0.2500    0.0000 C.3     1  UNL1        0.0147
      6 C           8.9561    0.7847    0.0000 C.3     1  UNL1       -0.0370
      7 C           7.1962    0.7500    0.0000 C.3     1  UNL1       -0.0111
      8 C           8.9561   -1.2847    0.0000 C.3     1  UNL1       -0.0005
      9 C           9.8622    0.2708    0.0000 C.3     1  UNL1       -0.0505
     10 C           9.8622   -0.7708    0.0000 C.3     1  UNL1       -0.0401
     11 C           7.1962   -1.2500    0.0000 C.3     1  UNL1        0.0252
     12 C           6.3301    0.2500    0.0000 C.2     1  UNL1       -0.0337
     13 C           6.3301   -0.7500    0.0000 C.2     1  UNL1       -0.0224
     14 C           5.4641    0.7500    0.0000 C.ar    1  UNL1       -0.0178
     15 C           5.4641   -1.2500    0.0000 C.ar    1  UNL1       -0.0201
     16 C           5.4641    1.7500    0.0000 C.ar    1  UNL1       -0.0089
     17 C           4.5981    0.2500    0.0000 C.ar    1  UNL1       -0.0506
     18 C           4.5981   -0.7500    0.0000 C.ar    1  UNL1       -0.0508
     19 C           5.4641   -2.2500    0.0000 C.ar    1  UNL1       -0.0508
     20 C           4.5981    2.2500    0.0000 C.ar    1  UNL1        0.1620
     21 C           3.7320    0.7500    0.0000 C.ar    1  UNL1       -0.0157
     22 C           3.7320   -1.2500    0.0000 C.ar    1  UNL1       -0.0194
     23 C           4.5981   -2.7500    0.0000 C.ar    1  UNL1       -0.0194
     24 C           3.7320    1.7500    0.0000 C.ar    1  UNL1        0.1615
     25 C           3.7320   -2.2500    0.0000 C.ar    1  UNL1        0.1201
     26 C           5.4641    3.7500    0.0000 C.3     1  UNL1        0.0790
     27 C           2.0000    1.7500    0.0000 C.3     1  UNL1        0.0790
     28 C           2.8660   -3.7500    0.0000 C.3     1  UNL1        0.0788
     29 H           8.0556    1.1000    0.0000 H       1  UNL1        0.0466
     30 H           9.3497    1.2637    0.0000 H       1  UNL1        0.0280
     31 H           8.5515    1.2544    0.0000 H       1  UNL1        0.0280
     32 H           7.5947    1.2250    0.0000 H       1  UNL1        0.0329
     33 H           6.7976    1.2250    0.0000 H       1  UNL1        0.0329
     34 H           8.5515   -1.7544    0.0000 H       1  UNL1        0.0427
     35 H           9.3497   -1.7637    0.0000 H       1  UNL1        0.0427
     36 H          10.4730    0.1647    0.0000 H       1  UNL1        0.0266
     37 H          10.0712    0.8545    0.0000 H       1  UNL1        0.0266
     38 H          10.0712   -1.3545    0.0000 H       1  UNL1        0.0278
     39 H          10.4730   -0.6647    0.0000 H       1  UNL1        0.0278
     40 H           6.7976   -1.7250    0.0000 H       1  UNL1        0.0476
     41 H           7.5947   -1.7250    0.0000 H       1  UNL1        0.0476
     42 H           6.0010    2.0600    0.0000 H       1  UNL1        0.0661
     43 H           4.5981   -0.3700    0.0000 H       1  UNL1        0.0625
     44 H           4.5981   -0.1300    0.0000 H       1  UNL1        0.0625
     45 H           6.0010   -2.5600    0.0000 H       1  UNL1        0.0625
     46 H           3.1951    0.4400    0.0000 H       1  UNL1        0.0655
     47 H           3.1951   -0.9400    0.0000 H       1  UNL1        0.0654
     48 H           4.5981   -3.3700    0.0000 H       1  UNL1        0.0654
     49 H           5.7741    3.2131    0.0000 H       1  UNL1        0.0660
     50 H           6.0010    4.0600    0.0000 H       1  UNL1        0.0660
     51 H           5.1541    4.2869    0.0000 H       1  UNL1        0.0660
     52 H           1.6900    2.2869    0.0000 H       1  UNL1        0.0660
     53 H           1.4631    1.4400    0.0000 H       1  UNL1        0.0660
     54 H           2.3100    1.2131    0.0000 H       1  UNL1        0.0660
     55 H           2.2460   -3.7500    0.0000 H       1  UNL1        0.0660
     56 H           2.8660   -4.3700    0.0000 H       1  UNL1        0.0660
     57 H           3.4860   -3.7500    0.0000 H       1  UNL1        0.0660
@<TRIPOS>BOND
     1     1    20    1
     2     1    26    1
     3     2    24    1
     4     2    27    1
     5     3    25    1
     6     3    28    1
     7     4     5    1
     8     4     8    1
     9     4    11    1
    10     5     6    1
    11     5     7    1
    12     5    29    1
    13     6     9    1
    14     6    30    1
    15     6    31    1
    16     7    12    1
    17     7    32    1
    18     7    33    1
    19     8    10    1
    20     8    34    1
    21     8    35    1
    22     9    10    1
    23     9    36    1
    24     9    37    1
    25    10    38    1
    26    10    39    1
    27    11    13    1
    28    11    40    1
    29    11    41    1
    30    12    13    2
    31    12    14    1
    32    13    15    1
    33    14    16   ar
    34    14    17   ar
    35    15    18   ar
    36    15    19   ar
    37    16    20   ar
    38    16    42    1
    39    17    21   ar
    40    17    43    1
    41    18    22   ar
    42    18    44    1
    43    19    23   ar
    44    19    45    1
    45    20    24   ar
    46    21    24   ar
    47    21    46    1
    48    22    25   ar
    49    22    47    1
    50    23    25   ar
    51    23    48    1
    52    26    49    1
    53    26    50    1
    54    26    51    1
    55    27    52    1
    56    27    53    1
    57    27    54    1
    58    28    55    1
    59    28    56    1
    60    28    57    1
