@<TRIPOS>MOLECULE
IMPHY006168
 41 43 0 0 0
SMALL
GASTEIGER

@<TRIPOS>ATOM
      1 O           5.7619   -0.9339    0.0000 O.3     1  UNL1       -0.3912
      2 O           3.1452    2.3474    0.0000 O.2     1  UNL1       -0.2962
      3 C           4.0791   -0.7443    0.0000 C.3     1  UNL1        0.0039
      4 C           3.1781   -0.3104    0.0000 C.3     1  UNL1       -0.0209
      5 C           4.5791    1.4464    0.0000 C.3     1  UNL1        0.0297
      6 C           3.9722    0.4325    0.0000 C.3     1  UNL1       -0.0323
      7 C           3.9431   -1.7290    0.0000 C.3     1  UNL1       -0.0356
      8 C           4.9800   -0.3104    0.0000 C.3     1  UNL1        0.0623
      9 C           2.9556    0.6645    0.0000 C.3     1  UNL1        0.0273
     10 C           5.2025    0.6645    0.0000 C.3     1  UNL1       -0.0142
     11 C           2.4930   -1.0307    0.0000 C.3     1  UNL1       -0.0485
     12 C           2.9648   -1.9056    0.0000 C.3     1  UNL1       -0.0496
     13 C           3.5791    1.4464    0.0000 C.2     1  UNL1        0.1451
     14 C           4.8016    2.4213    0.0000 C.3     1  UNL1       -0.0527
     15 C           4.6647   -2.4213    0.0000 C.3     1  UNL1       -0.0618
     16 C           2.2225    1.3447    0.0000 C.3     1  UNL1       -0.0528
     17 C           2.0000    0.3698    0.0000 C.3     1  UNL1       -0.0528
     18 H           2.5802   -0.1462    0.0000 H       1  UNL1        0.0316
     19 H           3.5644    0.8995    0.0000 H       1  UNL1        0.0281
     20 H           3.4022    0.1887    0.0000 H       1  UNL1        0.0281
     21 H           3.7640   -2.3226    0.0000 H       1  UNL1        0.0304
     22 H           5.5652   -0.1056    0.0000 H       1  UNL1        0.0599
     23 H           5.7612    0.3955    0.0000 H       1  UNL1        0.0300
     24 H           5.5891    1.1493    0.0000 H       1  UNL1        0.0300
     25 H           2.0911   -0.5585    0.0000 H       1  UNL1        0.0268
     26 H           1.9812   -1.3807    0.0000 H       1  UNL1        0.0268
     27 H           2.3912   -2.1409    0.0000 H       1  UNL1        0.0268
     28 H           3.1385   -2.5008    0.0000 H       1  UNL1        0.0268
     29 H           5.4060    2.2833    0.0000 H       1  UNL1        0.0239
     30 H           4.9396    3.0258    0.0000 H       1  UNL1        0.0239
     31 H           4.1971    2.5593    0.0000 H       1  UNL1        0.0239
     32 H           4.2354   -2.8687    0.0000 H       1  UNL1        0.0233
     33 H           5.1121   -2.8505    0.0000 H       1  UNL1        0.0233
     34 H           5.0939   -1.9739    0.0000 H       1  UNL1        0.0233
     35 H           2.6442    1.7992    0.0000 H       1  UNL1        0.0239
     36 H           1.7680    1.7664    0.0000 H       1  UNL1        0.0239
     37 H           1.8008    0.8902    0.0000 H       1  UNL1        0.0239
     38 H           1.8172    0.9622    0.0000 H       1  UNL1        0.0239
     39 H           1.4075    0.1870    0.0000 H       1  UNL1        0.0239
     40 H           2.1828   -0.2227    0.0000 H       1  UNL1        0.0239
     41 H           6.3390   -0.7074    0.0000 H       1  UNL1        0.2098
@<TRIPOS>BOND
     1     1     8    1
     2     1    41    1
     3     2    13    2
     4     3     4    1
     5     3     6    1
     6     3     7    1
     7     3     8    1
     8     4     9    1
     9     4    11    1
    10     4    18    1
    11     5     6    1
    12     5    10    1
    13     5    13    1
    14     5    14    1
    15     6    19    1
    16     6    20    1
    17     7    12    1
    18     7    15    1
    19     7    21    1
    20     8    10    1
    21     8    22    1
    22     9    13    1
    23     9    16    1
    24     9    17    1
    25    10    23    1
    26    10    24    1
    27    11    12    1
    28    11    25    1
    29    11    26    1
    30    12    27    1
    31    12    28    1
    32    14    29    1
    33    14    30    1
    34    14    31    1
    35    15    32    1
    36    15    33    1
    37    15    34    1
    38    16    35    1
    39    16    36    1
    40    16    37    1
    41    17    38    1
    42    17    39    1
    43    17    40    1
