@<TRIPOS>MOLECULE
IMPHY008954
 22 24 0 0 0
SMALL
GASTEIGER

@<TRIPOS>ATOM
      1 O           6.0010   -1.0000    0.0000 O.2     1  UNL1       -0.2830
      2 O           2.5369    1.0000    0.0000 O.2     1  UNL1       -0.2830
      3 O           6.0010    1.0000    0.0000 O.2     1  UNL1       -0.2830
      4 O           2.5369   -1.0000    0.0000 O.2     1  UNL1       -0.2830
      5 C           4.2690   -1.0000    0.0000 C.2     1  UNL1        0.0843
      6 C           4.2690    1.0000    0.0000 C.2     1  UNL1        0.0843
      7 C           5.1350   -0.5000    0.0000 C.2     1  UNL1        0.2375
      8 C           3.4030    0.5000    0.0000 C.2     1  UNL1        0.2375
      9 C           4.2690   -2.0000    0.0000 C.ar    1  UNL1        0.0064
     10 C           4.2690    2.0000    0.0000 C.ar    1  UNL1        0.0064
     11 C           5.1350    0.5000    0.0000 C.2     1  UNL1        0.2375
     12 C           3.4030   -0.5000    0.0000 C.2     1  UNL1        0.2375
     13 C           5.1350   -2.5000    0.0000 C.ar    1  UNL1        0.0002
     14 C           3.4030    2.5000    0.0000 C.ar    1  UNL1        0.0002
     15 C           3.4030   -2.5000    0.0000 C.ar    1  UNL1        0.0002
     16 C           5.1350    2.5000    0.0000 C.ar    1  UNL1        0.0002
     17 C           5.1350   -3.5000    0.0000 C.ar    1  UNL1        0.0000
     18 C           3.4030    3.5000    0.0000 C.ar    1  UNL1        0.0000
     19 C           3.4030   -3.5000    0.0000 C.ar    1  UNL1        0.0000
     20 C           5.1350    3.5000    0.0000 C.ar    1  UNL1        0.0000
     21 C           4.2690   -4.0000    0.0000 C.ar    1  UNL1        0.0000
     22 C           4.2690    4.0000    0.0000 C.ar    1  UNL1        0.0000
@<TRIPOS>BOND
     1     1     7    1
     2     2     8    1
     3     3    11    2
     4     4    12    2
     5     5     7    2
     6     5     9    1
     7     5    12    1
     8     6     8    2
     9     6    10    1
    10     6    11    1
    11     7    11    1
    12     8    12    1
    13     9    13   ar
    14     9    15   ar
    15    10    14   ar
    16    10    16   ar
    17    13    17   ar
    18    14    18   ar
    19    15    19   ar
    20    16    20   ar
    21    17    21   ar
    22    18    22   ar
    23    19    21   ar
    24    20    22   ar
