@<TRIPOS>MOLECULE
IMPHY012187
 46 50 0 0 0
SMALL
GASTEIGER

@<TRIPOS>ATOM
      1 O           9.3729   -3.0309    0.0000 O.3     1  UNL1       -0.4526
      2 O          10.8248   -2.1927    0.0000 O.3     1  UNL1       -0.4526
      3 O           4.6874    2.6283    0.0000 O.3     1  UNL1       -0.4911
      4 O           2.8680    1.5964    0.0000 O.3     1  UNL1       -0.4914
      5 N           7.4070    1.0506    0.0000 N.3     1  UNL1       -0.2905
      6 C           7.4070    0.0506    0.0000 C.3     1  UNL1        0.0403
      7 C           6.5130   -0.4840    0.0000 C.3     1  UNL1       -0.0074
      8 C           8.2730   -0.4494    0.0000 C.ar    1  UNL1       -0.0230
      9 C           8.2730    1.5506    0.0000 C.3     1  UNL1        0.0038
     10 C           6.5130    1.5853    0.0000 C.3     1  UNL1        0.0285
     11 C           9.1390    1.0506    0.0000 C.3     1  UNL1       -0.0144
     12 C           9.1390    0.0506    0.0000 C.ar    1  UNL1       -0.0378
     13 C           5.6070    0.0298    0.0000 C.ar    1  UNL1       -0.0375
     14 C           5.6070    1.0714    0.0000 C.ar    1  UNL1        0.0151
     15 C           8.2570   -1.4909    0.0000 C.ar    1  UNL1       -0.0112
     16 C          10.0490   -0.4562    0.0000 C.ar    1  UNL1       -0.0126
     17 C           4.6758    1.6284    0.0000 C.ar    1  UNL1        0.1661
     18 C           4.6758   -0.5271    0.0000 C.ar    1  UNL1       -0.0545
     19 C           9.1550   -2.0186    0.0000 C.ar    1  UNL1        0.1666
     20 C          10.0571   -1.4978    0.0000 C.ar    1  UNL1        0.1665
     21 C           3.7320    1.0931    0.0000 C.ar    1  UNL1        0.1618
     22 C           3.7320    0.0081    0.0000 C.ar    1  UNL1       -0.0160
     23 C          10.4028   -3.1383    0.0000 C.3     1  UNL1        0.2332
     24 C           3.8272    3.1383    0.0000 C.3     1  UNL1        0.0790
     25 C           2.0000    1.0998    0.0000 C.3     1  UNL1        0.0790
     26 H           7.4118   -0.5694    0.0000 H       1  UNL1        0.0516
     27 H           6.1194   -0.9631    0.0000 H       1  UNL1        0.0332
     28 H           6.9176   -0.9538    0.0000 H       1  UNL1        0.0332
     29 H           8.6716    2.0256    0.0000 H       1  UNL1        0.0430
     30 H           7.8745    2.0256    0.0000 H       1  UNL1        0.0430
     31 H           6.9176    2.0551    0.0000 H       1  UNL1        0.0477
     32 H           6.1194    2.0643    0.0000 H       1  UNL1        0.0477
     33 H           9.7496    0.9430    0.0000 H       1  UNL1        0.0326
     34 H           9.3511    1.6332    0.0000 H       1  UNL1        0.0326
     35 H           7.7165   -1.7947    0.0000 H       1  UNL1        0.0659
     36 H          10.5824   -0.1400    0.0000 H       1  UNL1        0.0658
     37 H           4.6830   -1.1471    0.0000 H       1  UNL1        0.0622
     38 H           3.1963   -0.3039    0.0000 H       1  UNL1        0.0655
     39 H          10.2741   -3.7448    0.0000 H       1  UNL1        0.1166
     40 H          10.9924   -3.3300    0.0000 H       1  UNL1        0.1166
     41 H           4.1434    3.6716    0.0000 H       1  UNL1        0.0660
     42 H           3.2939    3.4544    0.0000 H       1  UNL1        0.0660
     43 H           3.5110    2.6050    0.0000 H       1  UNL1        0.0660
     44 H           1.6921    1.6379    0.0000 H       1  UNL1        0.0660
     45 H           1.4619    0.7919    0.0000 H       1  UNL1        0.0660
     46 H           2.3079    0.5617    0.0000 H       1  UNL1        0.0660
@<TRIPOS>BOND
     1     1    19    1
     2     1    23    1
     3     2    20    1
     4     2    23    1
     5     3    17    1
     6     3    24    1
     7     4    21    1
     8     4    25    1
     9     5     6    1
    10     5     9    1
    11     5    10    1
    12     6     7    1
    13     6     8    1
    14     6    26    1
    15     7    13    1
    16     7    27    1
    17     7    28    1
    18     8    12   ar
    19     8    15   ar
    20     9    11    1
    21     9    29    1
    22     9    30    1
    23    10    14    1
    24    10    31    1
    25    10    32    1
    26    11    12    1
    27    11    33    1
    28    11    34    1
    29    12    16   ar
    30    13    14   ar
    31    13    18   ar
    32    14    17   ar
    33    15    19   ar
    34    15    35    1
    35    16    20   ar
    36    16    36    1
    37    17    21   ar
    38    18    22   ar
    39    18    37    1
    40    19    20   ar
    41    21    22   ar
    42    22    38    1
    43    23    39    1
    44    23    40    1
    45    24    41    1
    46    24    42    1
    47    24    43    1
    48    25    44    1
    49    25    45    1
    50    25    46    1
