@<TRIPOS>MOLECULE
IMPHY002470
 57 63 0 0 0
SMALL
GASTEIGER

@<TRIPOS>ATOM
      1 O           3.5532   -0.4386    0.0000 O.3     1  UNL1       -0.3572
      2 O           7.9933   -1.0928    0.0000 O.3     1  UNL1       -0.3869
      3 O           5.3766    2.1884    0.0000 O.3     1  UNL1       -0.3912
      4 N           4.4959    1.0436    0.0000 N.3     1  UNL1       -0.2735
      5 C           4.5400   -1.0428    0.0000 C.3     1  UNL1        0.0199
      6 C           5.3827   -1.5861    0.0000 C.3     1  UNL1        0.0247
      7 C           4.6098   -2.0821    0.0000 C.3     1  UNL1       -0.0220
      8 C           6.3105   -0.9032    0.0000 C.3     1  UNL1        0.0090
      9 C           6.4044   -1.9406    0.0000 C.3     1  UNL1       -0.0158
     10 C           5.4096   -0.4693    0.0000 C.3     1  UNL1       -0.0203
     11 C           2.9051   -1.3012    0.0000 C.3     1  UNL1        0.0113
     12 C           5.5483   -2.5340    0.0000 C.3     1  UNL1       -0.0441
     13 C           4.4499    0.0112    0.0000 C.3     1  UNL1        0.0683
     14 C           2.8470    0.2741    0.0000 C.3     1  UNL1        0.1181
     15 C           6.2037    0.2736    0.0000 C.3     1  UNL1       -0.0352
     16 C           5.1870    0.5056    0.0000 C.3     1  UNL1       -0.0222
     17 C           7.2115   -0.4693    0.0000 C.3     1  UNL1        0.0825
     18 C           2.6656   -0.2708    0.0000 C.3     1  UNL1       -0.0414
     19 C           3.4718    0.4141    0.0000 C.3     1  UNL1       -0.0253
     20 C           6.8105    1.2874    0.0000 C.3     1  UNL1        0.0089
     21 C           5.8105    1.2874    0.0000 C.3     1  UNL1        0.0621
     22 C           7.4340    0.5056    0.0000 C.2     1  UNL1       -0.0425
     23 C           2.0000   -1.7265    0.0000 C.3     1  UNL1       -0.0557
     24 C           4.5955    2.0386    0.0000 C.3     1  UNL1       -0.0013
     25 C           8.4089    0.7281    0.0000 C.2     1  UNL1       -0.0967
     26 C           3.7836    2.6223    0.0000 C.3     1  UNL1       -0.0523
     27 H           5.0350   -2.3617    0.0000 H       1  UNL1        0.0473
     28 H           4.6668   -2.9301    0.0000 H       1  UNL1        0.0314
     29 H           7.1702   -2.3094    0.0000 H       1  UNL1        0.0323
     30 H           4.5619   -0.5329    0.0000 H       1  UNL1        0.0315
     31 H           5.1876   -3.0383    0.0000 H       1  UNL1        0.0272
     32 H           5.9835   -2.9756    0.0000 H       1  UNL1        0.0272
     33 H           5.2993    0.0428    0.0000 H       1  UNL1        0.0603
     34 H           2.2488    0.8779    0.0000 H       1  UNL1        0.0775
     35 H           5.7959    0.7406    0.0000 H       1  UNL1        0.0278
     36 H           5.6336    0.0297    0.0000 H       1  UNL1        0.0278
     37 H           4.8005    0.9903    0.0000 H       1  UNL1        0.0293
     38 H           4.6284    0.2366    0.0000 H       1  UNL1        0.0293
     39 H           7.1421   -1.0854    0.0000 H       1  UNL1        0.0646
     40 H           2.3439    0.2592    0.0000 H       1  UNL1        0.0273
     41 H           2.0914   -0.5048    0.0000 H       1  UNL1        0.0273
     42 H           3.7955    0.9429    0.0000 H       1  UNL1        0.0290
     43 H           3.0008    0.8173    0.0000 H       1  UNL1        0.0290
     44 H           6.9997    2.1161    0.0000 H       1  UNL1        0.0372
     45 H           5.1944    1.3568    0.0000 H       1  UNL1        0.0599
     46 H           1.7363   -1.1654    0.0000 H       1  UNL1        0.0236
     47 H           1.4389   -1.9902    0.0000 H       1  UNL1        0.0236
     48 H           2.2637   -2.2876    0.0000 H       1  UNL1        0.0236
     49 H           5.1923    1.8707    0.0000 H       1  UNL1        0.0425
     50 H           4.8645    2.5972    0.0000 H       1  UNL1        0.0425
     51 H           8.5705   -0.8663    0.0000 H       1  UNL1        0.2102
     52 H           8.8306    0.2736    0.0000 H       1  UNL1        0.0535
     53 H           8.5917    1.3206    0.0000 H       1  UNL1        0.0535
     54 H           5.7259    2.7007    0.0000 H       1  UNL1        0.2098
     55 H           4.1455    3.1257    0.0000 H       1  UNL1        0.0242
     56 H           3.2802    2.9842    0.0000 H       1  UNL1        0.0242
     57 H           3.4216    2.1189    0.0000 H       1  UNL1        0.0242
@<TRIPOS>BOND
     1     1    13    1
     2     1    14    1
     3    17     2    1
     4     2    51    1
     5    21     3    1
     6     3    54    1
     7     4     6    1
     8     4    14    1
     9     4    24    1
    10     5     6    1
    11     5     7    1
    12     5    10    1
    13     5    13    1
    14     6     9    1
    15     6    27    1
    16     7    11    1
    17     7    12    1
    18     7    28    1
    19     8     9    1
    20     8    10    1
    21     8    15    1
    22     8    17    1
    23     9    12    1
    24     9    29    1
    25    10    16    1
    26    10    30    1
    27    11    14    1
    28    11    18    1
    29    11    23    1
    30    12    31    1
    31    12    32    1
    32    13    19    1
    33    13    33    1
    34    14    34    1
    35    15    20    1
    36    15    35    1
    37    15    36    1
    38    16    21    1
    39    16    37    1
    40    16    38    1
    41    17    22    1
    42    17    39    1
    43    18    19    1
    44    18    40    1
    45    18    41    1
    46    19    42    1
    47    19    43    1
    48    20    21    1
    49    20    22    1
    50    20    44    1
    51    21    45    1
    52    22    25    2
    53    23    46    1
    54    23    47    1
    55    23    48    1
    56    24    26    1
    57    24    49    1
    58    24    50    1
    59    25    52    1
    60    25    53    1
    61    26    55    1
    62    26    56    1
    63    26    57    1
