@<TRIPOS>MOLECULE
IMPHY000385
 80 82 0 0 0
SMALL
GASTEIGER

@<TRIPOS>ATOM
      1 O          10.3748   -1.5130    0.0000 O.3     1  UNL1       -0.4801
      2 O           7.5668    2.4011    0.0000 O.2     1  UNL1       -0.5097
      3 O           4.9132    0.1744    0.0000 O.2     1  UNL1       -0.5056
      4 O           4.3116    3.5859    0.0000 O.2     1  UNL1       -0.2908
      5 O           8.6148    1.5217    0.0000 O.3     1  UNL1       -0.5057
      6 O           6.8828   -1.4783    0.0000 O.3     1  UNL1       -0.5055
      7 O           3.2856    0.7668    0.0000 O.2     1  UNL1       -0.2915
      8 O           7.7488   -2.9783    0.0000 O.2     1  UNL1       -0.2915
      9 C           5.9392    2.9935    0.0000 C.3     1  UNL1        0.0853
     10 C           6.2400    1.2878    0.0000 C.2     1  UNL1        0.0375
     11 C          11.2809   -0.9991    0.0000 C.3     1  UNL1        0.1297
     12 C           6.5820    2.2274    0.0000 C.2     1  UNL1        0.1141
     13 C           6.8828    0.5217    0.0000 C.3     1  UNL1        0.0112
     14 C           7.7488    0.0217    0.0000 C.ar    1  UNL1        0.0414
     15 C           4.9544    2.8198    0.0000 C.2     1  UNL1        0.1829
     16 C           9.4809   -0.9783    0.0000 C.ar    1  UNL1        0.1464
     17 C           4.6124    1.8802    0.0000 C.2     1  UNL1        0.1026
     18 C           9.4809    0.0217    0.0000 C.ar    1  UNL1        0.0591
     19 C           5.2552    1.1141    0.0000 C.2     1  UNL1        0.1374
     20 C           5.7656    3.9783    0.0000 C.3     1  UNL1       -0.0458
     21 C           6.7053    3.6363    0.0000 C.3     1  UNL1       -0.0458
     22 C           8.6148   -1.4783    0.0000 C.ar    1  UNL1        0.1017
     23 C           8.6148    0.5217    0.0000 C.ar    1  UNL1        0.1344
     24 C          12.2809   -1.0030    0.0000 C.3     1  UNL1        0.0090
     25 C           7.7488   -0.9783    0.0000 C.ar    1  UNL1        0.1378
     26 C          11.2809    0.0425    0.0000 C.2     1  UNL1       -0.0402
     27 C          10.3748    0.5564    0.0000 C.2     1  UNL1       -0.0478
     28 C          11.7775   -1.8671    0.0000 C.3     1  UNL1       -0.0209
     29 C           3.6276    1.7065    0.0000 C.2     1  UNL1        0.1726
     30 C           8.6148   -2.4783    0.0000 C.2     1  UNL1        0.1727
     31 C           2.9848    2.4725    0.0000 C.3     1  UNL1        0.0167
     32 C           9.4809   -2.9783    0.0000 C.3     1  UNL1        0.0167
     33 C          12.7842   -0.1389    0.0000 C.2     1  UNL1       -0.0812
     34 C           2.0000    2.2989    0.0000 C.3     1  UNL1       -0.0556
     35 C           3.3268    3.4122    0.0000 C.3     1  UNL1       -0.0556
     36 C           9.4809   -3.9783    0.0000 C.3     1  UNL1       -0.0556
     37 C          10.3469   -2.4783    0.0000 C.3     1  UNL1       -0.0556
     38 C          13.7842   -0.1427    0.0000 C.2     1  UNL1       -0.0795
     39 C          14.2875    0.7214    0.0000 C.3     1  UNL1       -0.0440
     40 C          14.2808   -1.0107    0.0000 C.3     1  UNL1       -0.0440
     41 H           6.2888    0.3439    0.0000 H       1  UNL1        0.0366
     42 H           7.2813    0.9967    0.0000 H       1  UNL1        0.0366
     43 H           7.1038    3.1613    0.0000 H       1  UNL1        0.0243
     44 H           6.3762    4.0860    0.0000 H       1  UNL1        0.0243
     45 H           7.1802    4.0348    0.0000 H       1  UNL1        0.0243
     46 H           6.3068    4.1112    0.0000 H       1  UNL1        0.0243
     47 H           5.6579    4.5889    0.0000 H       1  UNL1        0.0243
     48 H           5.1550    3.8706    0.0000 H       1  UNL1        0.0243
     49 H          12.1708   -1.6131    0.0000 H       1  UNL1        0.0349
     50 H          12.8627   -1.2173    0.0000 H       1  UNL1        0.0349
     51 H          11.8166    0.3546    0.0000 H       1  UNL1        0.0611
     52 H          10.3676    1.1763    0.0000 H       1  UNL1        0.0624
     53 H          11.2394   -2.1750    0.0000 H       1  UNL1        0.0271
     54 H          12.0855   -2.4052    0.0000 H       1  UNL1        0.0271
     55 H          12.3157   -1.5591    0.0000 H       1  UNL1        0.0271
     56 H           2.7728    1.8899    0.0000 H       1  UNL1        0.0375
     57 H          10.0178   -3.2883    0.0000 H       1  UNL1        0.0375
     58 H          12.4763    0.3993    0.0000 H       1  UNL1        0.0573
     59 H           7.9654    1.9261    0.0000 H       1  UNL1        0.2917
     60 H           5.3117   -0.3005    0.0000 H       1  UNL1        0.2922
     61 H           9.1518    1.8317    0.0000 H       1  UNL1        0.2922
     62 H           3.9094    3.2002    0.0000 H       1  UNL1        0.0236
     63 H           3.5389    3.9948    0.0000 H       1  UNL1        0.0236
     64 H           2.7442    3.6243    0.0000 H       1  UNL1        0.0236
     65 H           1.8923    2.9095    0.0000 H       1  UNL1        0.0236
     66 H           1.3894    2.1912    0.0000 H       1  UNL1        0.0236
     67 H           2.1077    1.6883    0.0000 H       1  UNL1        0.0236
     68 H           6.8828   -2.0983    0.0000 H       1  UNL1        0.2922
     69 H          10.6569   -3.0152    0.0000 H       1  UNL1        0.0236
     70 H          10.8838   -2.1683    0.0000 H       1  UNL1        0.0236
     71 H          10.0369   -1.9414    0.0000 H       1  UNL1        0.0236
     72 H           8.8609   -3.9783    0.0000 H       1  UNL1        0.0236
     73 H           9.4809   -4.5983    0.0000 H       1  UNL1        0.0236
     74 H          10.1009   -3.9783    0.0000 H       1  UNL1        0.0236
     75 H          14.8233    0.4093    0.0000 H       1  UNL1        0.0274
     76 H          14.5996    1.2571    0.0000 H       1  UNL1        0.0274
     77 H          13.7518    1.0334    0.0000 H       1  UNL1        0.0274
     78 H          13.7427   -1.3186    0.0000 H       1  UNL1        0.0274
     79 H          14.5888   -1.5488    0.0000 H       1  UNL1        0.0274
     80 H          14.8190   -0.7027    0.0000 H       1  UNL1        0.0274
@<TRIPOS>BOND
     1     1    11    1
     2     1    16    1
     3     2    12    1
     4     2    59    1
     5     3    19    1
     6     3    60    1
     7     4    15    2
     8     5    23    1
     9     5    61    1
    10     6    25    1
    11     6    68    1
    12     7    29    2
    13     8    30    2
    14     9    12    1
    15     9    15    1
    16     9    20    1
    17     9    21    1
    18    10    12    2
    19    10    13    1
    20    10    19    1
    21    11    24    1
    22    11    26    1
    23    11    28    1
    24    13    14    1
    25    13    41    1
    26    13    42    1
    27    14    23   ar
    28    14    25   ar
    29    15    17    1
    30    16    18   ar
    31    16    22   ar
    32    17    19    2
    33    17    29    1
    34    18    23   ar
    35    18    27    1
    36    20    44    1
    37    20    47    1
    38    20    48    1
    39    21    43    1
    40    21    45    1
    41    21    46    1
    42    22    25   ar
    43    22    30    1
    44    24    33    1
    45    24    49    1
    46    24    50    1
    47    26    27    2
    48    26    51    1
    49    27    52    1
    50    28    53    1
    51    28    54    1
    52    28    55    1
    53    29    31    1
    54    30    32    1
    55    31    34    1
    56    31    35    1
    57    31    56    1
    58    32    36    1
    59    32    37    1
    60    32    57    1
    61    33    38    2
    62    33    58    1
    63    34    65    1
    64    34    66    1
    65    34    67    1
    66    35    62    1
    67    35    63    1
    68    35    64    1
    69    36    72    1
    70    36    73    1
    71    36    74    1
    72    37    69    1
    73    37    70    1
    74    37    71    1
    75    38    39    1
    76    38    40    1
    77    39    75    1
    78    39    76    1
    79    39    77    1
    80    40    78    1
    81    40    79    1
    82    40    80    1
