@<TRIPOS>MOLECULE
IMPHY000882
 115 123 0 0 0
SMALL
GASTEIGER

@<TRIPOS>ATOM
      1 O           9.4276   -5.2349    0.0000 O.3     1  UNL1       -0.4570
      2 O          10.6951   -3.2802    0.0000 O.3     1  UNL1       -0.3733
      3 O          11.4382   -3.9494    0.0000 O.3     1  UNL1       -0.4658
      4 O          11.2304   -4.9274    0.0000 O.2     1  UNL1       -0.2474
      5 O          10.7975    1.2100    0.0000 O.3     1  UNL1       -0.4944
      6 O          10.7148   -6.3939    0.0000 O.2     1  UNL1       -0.2512
      7 O           9.2652    3.3065    0.0000 O.3     1  UNL1       -0.4644
      8 O           5.2316    6.3767    0.0000 O.3     1  UNL1       -0.3866
      9 O          10.5524    2.1475    0.0000 O.2     1  UNL1       -0.2450
     10 N           7.0012   -3.0062    0.0000 N.3     1  UNL1       -0.2939
     11 N          10.0806   -2.0056    0.0000 N.pl3   1  UNL1       -0.3252
     12 N           6.8093    4.4508    0.0000 N.3     1  UNL1       -0.2987
     13 N           5.0199    1.7982    0.0000 N.ar    1  UNL1       -0.3574
     14 C           8.5409   -2.5060    0.0000 C.3     1  UNL1        0.0369
     15 C           7.9154   -3.2006    0.0000 C.3     1  UNL1        0.0348
     16 C           8.2043   -4.0895    0.0000 C.3     1  UNL1        0.0453
     17 C           9.4552   -2.7003    0.0000 C.3     1  UNL1        0.0772
     18 C           9.7440   -3.5892    0.0000 C.3     1  UNL1        0.2195
     19 C           8.1558   -1.4703    0.0000 C.3     1  UNL1       -0.0272
     20 C           9.1186   -4.2839    0.0000 C.3     1  UNL1        0.1542
     21 C           8.8775   -0.9223    0.0000 C.ar    1  UNL1       -0.0160
     22 C           6.7123   -2.1173    0.0000 C.3     1  UNL1        0.0005
     23 C           8.5133   -5.0406    0.0000 C.3     1  UNL1       -0.0418
     24 C           9.7918   -1.1167    0.0000 C.ar    1  UNL1        0.0372
     25 C           7.5788   -4.7842    0.0000 C.2     1  UNL1       -0.0755
     26 C           6.3757   -3.7009    0.0000 C.3     1  UNL1        0.0175
     27 C           6.6646   -4.5898    0.0000 C.2     1  UNL1       -0.0733
     28 C          10.4872   -4.2584    0.0000 C.2     1  UNL1        0.3446
     29 C           8.5886   -0.0334    0.0000 C.ar    1  UNL1       -0.0447
     30 C          11.0317   -1.6966    0.0000 C.3     1  UNL1        0.0011
     31 C           7.8442   -5.7837    0.0000 C.3     1  UNL1       -0.0643
     32 C          10.4172   -0.4221    0.0000 C.ar    1  UNL1        0.0020
     33 C           9.2141    0.6612    0.0000 C.ar    1  UNL1        0.0307
     34 C          10.1284    0.4669    0.0000 C.ar    1  UNL1        0.1297
     35 C           9.7366   -6.1860    0.0000 C.2     1  UNL1        0.3043
     36 C           8.9051    1.6123    0.0000 C.2     1  UNL1        0.0660
     37 C           9.0675   -6.9291    0.0000 C.3     1  UNL1        0.0332
     38 C          12.1814   -4.6185    0.0000 C.3     1  UNL1        0.0818
     39 C           7.9269    1.8202    0.0000 C.2     1  UNL1       -0.0643
     40 C           7.6179    2.7713    0.0000 C.3     1  UNL1        0.0018
     41 C           6.3553    3.5598    0.0000 C.3     1  UNL1        0.0369
     42 C           5.7762    5.5380    0.0000 C.3     1  UNL1        0.0871
     43 C           9.5742    2.3554    0.0000 C.2     1  UNL1        0.3393
     44 C           8.0719    3.6623    0.0000 C.3     1  UNL1        0.0060
     45 C           6.7272    5.8471    0.0000 C.3     1  UNL1        0.0284
     46 C          11.7757    1.0021    0.0000 C.3     1  UNL1        0.0788
     47 C           5.0918    2.7897    0.0000 C.ar    1  UNL1        0.0267
     48 C           4.7776    5.4857    0.0000 C.3     1  UNL1       -0.0250
     49 C           4.8135    4.7702    0.0000 C.3     1  UNL1        0.0031
     50 C           4.1646    3.1643    0.0000 C.ar    1  UNL1       -0.0175
     51 C           4.0254    4.1545    0.0000 C.3     1  UNL1       -0.0126
     52 C           3.5276    2.4011    0.0000 C.ar    1  UNL1        0.0031
     53 C           4.0551    1.5585    0.0000 C.ar    1  UNL1        0.0469
     54 C           4.2329    6.3244    0.0000 C.3     1  UNL1       -0.0626
     55 C           9.9343    4.0496    0.0000 C.3     1  UNL1        0.0820
     56 C           2.4924    2.3800    0.0000 C.ar    1  UNL1       -0.0523
     57 C           3.5840    0.6365    0.0000 C.ar    1  UNL1       -0.0378
     58 C           2.0000    1.4691    0.0000 C.ar    1  UNL1       -0.0611
     59 C           2.5495    0.5915    0.0000 C.ar    1  UNL1       -0.0598
     60 H           7.5006   -3.6613    0.0000 H       1  UNL1        0.0482
     61 H          10.0616   -2.8292    0.0000 H       1  UNL1        0.0544
     62 H           8.7321   -1.2416    0.0000 H       1  UNL1        0.0287
     63 H           7.9146   -0.8992    0.0000 H       1  UNL1        0.0287
     64 H           9.7250   -4.4128    0.0000 H       1  UNL1        0.0779
     65 H           6.4791   -1.5428    0.0000 H       1  UNL1        0.0427
     66 H           6.1299   -2.3298    0.0000 H       1  UNL1        0.0427
     67 H           8.8950   -5.5292    0.0000 H       1  UNL1        0.0273
     68 H           9.0607   -4.7495    0.0000 H       1  UNL1        0.0273
     69 H           7.7704   -5.3738    0.0000 H       1  UNL1        0.0577
     70 H           5.9940   -3.2123    0.0000 H       1  UNL1        0.0470
     71 H           5.8283   -3.9919    0.0000 H       1  UNL1        0.0470
     72 H           6.2497   -5.0506    0.0000 H       1  UNL1        0.0582
     73 H           7.9822    0.0955    0.0000 H       1  UNL1        0.0628
     74 H          11.1099   -2.8195    0.0000 H       1  UNL1        0.2111
     75 H          11.2233   -2.2863    0.0000 H       1  UNL1        0.0428
     76 H          11.6213   -1.5050    0.0000 H       1  UNL1        0.0428
     77 H          10.8401   -1.1070    0.0000 H       1  UNL1        0.0428
     78 H           7.3834   -5.3689    0.0000 H       1  UNL1        0.0230
     79 H           7.4293   -6.2445    0.0000 H       1  UNL1        0.0230
     80 H           8.3049   -6.1986    0.0000 H       1  UNL1        0.0230
     81 H          11.0237   -0.5510    0.0000 H       1  UNL1        0.0673
     82 H           8.6067   -6.5143    0.0000 H       1  UNL1        0.0342
     83 H           8.6526   -7.3899    0.0000 H       1  UNL1        0.0342
     84 H           9.5282   -7.3440    0.0000 H       1  UNL1        0.0342
     85 H          11.7665   -5.0792    0.0000 H       1  UNL1        0.0661
     86 H          12.6421   -5.0334    0.0000 H       1  UNL1        0.0661
     87 H          12.5962   -4.1577    0.0000 H       1  UNL1        0.0661
     88 H           7.5121    1.3595    0.0000 H       1  UNL1        0.0584
     89 H           7.1294    2.3895    0.0000 H       1  UNL1        0.0363
     90 H           5.9694    2.8025    0.0000 H       1  UNL1        0.0398
     91 H           8.6159    3.3649    0.0000 H       1  UNL1        0.0432
     92 H           8.3850    4.1974    0.0000 H       1  UNL1        0.0432
     93 H           7.3408    5.9360    0.0000 H       1  UNL1        0.0455
     94 H           6.5865    6.4509    0.0000 H       1  UNL1        0.0455
     95 H          11.6468    0.3957    0.0000 H       1  UNL1        0.0660
     96 H          12.3821    0.8732    0.0000 H       1  UNL1        0.0660
     97 H          11.9046    1.6086    0.0000 H       1  UNL1        0.0660
     98 H           4.2068    5.2434    0.0000 H       1  UNL1        0.0291
     99 H           4.9170    4.8816    0.0000 H       1  UNL1        0.0291
    100 H           5.0596    5.3392    0.0000 H       1  UNL1        0.0430
    101 H           4.3229    5.1493    0.0000 H       1  UNL1        0.0430
    102 H           3.7344    4.7020    0.0000 H       1  UNL1        0.0326
    103 H           3.4358    3.9630    0.0000 H       1  UNL1        0.0326
    104 H           5.4941    1.3988    0.0000 H       1  UNL1        0.1656
    105 H           5.5130    6.9291    0.0000 H       1  UNL1        0.2102
    106 H           4.7529    6.6620    0.0000 H       1  UNL1        0.0231
    107 H           3.8952    6.8444    0.0000 H       1  UNL1        0.0231
    108 H           3.7129    5.9867    0.0000 H       1  UNL1        0.0231
    109 H          10.3951    3.6348    0.0000 H       1  UNL1        0.0661
    110 H          10.3492    4.5104    0.0000 H       1  UNL1        0.0661
    111 H           9.4736    4.4645    0.0000 H       1  UNL1        0.0661
    112 H           2.1695    2.9093    0.0000 H       1  UNL1        0.0624
    113 H           3.9190    0.1148    0.0000 H       1  UNL1        0.0638
    114 H           1.3803    1.4493    0.0000 H       1  UNL1        0.0618
    115 H           2.2610    0.0427    0.0000 H       1  UNL1        0.0618
@<TRIPOS>BOND
     1    20     1    1
     2     1    35    1
     3    18     2    1
     4     2    74    1
     5     3    28    1
     6     3    38    1
     7     4    28    2
     8     5    34    1
     9     5    46    1
    10     6    35    2
    11     7    43    1
    12     7    55    1
    13    42     8    1
    14     8   105    1
    15     9    43    2
    16    10    15    1
    17    10    22    1
    18    10    26    1
    19    11    17    1
    20    11    24    1
    21    11    30    1
    22    12    44    1
    23    12    45    1
    24    12    49    1
    25    13    47   ar
    26    13    53   ar
    27    13   104    1
    28    14    15    1
    29    14    17    1
    30    14    19    1
    31    14    21    1
    32    15    16    1
    33    15    60    1
    34    16    20    1
    35    16    23    1
    36    16    25    1
    37    17    18    1
    38    17    61    1
    39    18    20    1
    40    18    28    1
    41    19    22    1
    42    19    62    1
    43    19    63    1
    44    20    64    1
    45    21    24   ar
    46    21    29   ar
    47    22    65    1
    48    22    66    1
    49    23    31    1
    50    23    67    1
    51    23    68    1
    52    24    32   ar
    53    25    27    2
    54    25    69    1
    55    26    27    1
    56    26    70    1
    57    26    71    1
    58    27    72    1
    59    29    33   ar
    60    29    73    1
    61    30    75    1
    62    30    76    1
    63    30    77    1
    64    31    78    1
    65    31    79    1
    66    31    80    1
    67    32    34   ar
    68    32    81    1
    69    33    34   ar
    70    33    36    1
    71    35    37    1
    72    36    39    2
    73    36    43    1
    74    37    82    1
    75    37    83    1
    76    37    84    1
    77    38    85    1
    78    38    86    1
    79    38    87    1
    80    40    39    1
    81    39    88    1
    82    40    41    1
    83    40    44    1
    84    40    89    1
    85    41    42    1
    86    41    47    1
    87    41    90    1
    88    42    45    1
    89    42    48    1
    90    44    91    1
    91    44    92    1
    92    45    93    1
    93    45    94    1
    94    46    95    1
    95    46    96    1
    96    46    97    1
    97    47    50   ar
    98    48    54    1
    99    48    98    1
   100    48    99    1
   101    49    51    1
   102    49   100    1
   103    49   101    1
   104    50    51    1
   105    50    52   ar
   106    51   102    1
   107    51   103    1
   108    52    53   ar
   109    52    56   ar
   110    53    57   ar
   111    54   106    1
   112    54   107    1
   113    54   108    1
   114    55   109    1
   115    55   110    1
   116    55   111    1
   117    56    58   ar
   118    56   112    1
   119    57    59   ar
   120    57   113    1
   121    58    59   ar
   122    58   114    1
   123    59   115    1
