@<TRIPOS>MOLECULE
IMPHY002652
 40 41 0 0 0
SMALL
GASTEIGER

@<TRIPOS>ATOM
      1 O           4.6144   -2.1092    0.0000 O.3     1  UNL1       -0.3909
      2 C           3.7320    0.4254    0.0000 C.3     1  UNL1       -0.0107
      3 C           2.8660    0.9254    0.0000 C.3     1  UNL1       -0.0315
      4 C           3.7320   -0.5746    0.0000 C.3     1  UNL1        0.0127
      5 C           2.0000    0.4254    0.0000 C.3     1  UNL1       -0.0457
      6 C           4.6260   -1.1093    0.0000 C.3     1  UNL1        0.0659
      7 C           2.8660    1.9254    0.0000 C.3     1  UNL1       -0.0433
      8 C           2.8660   -1.0746    0.0000 C.2     1  UNL1       -0.0705
      9 C           2.0000   -0.5746    0.0000 C.3     1  UNL1       -0.0314
     10 C           4.6260    0.9601    0.0000 C.2     1  UNL1       -0.0809
     11 C           5.5321   -0.5954    0.0000 C.3     1  UNL1       -0.0053
     12 C           5.5321    0.4462    0.0000 C.2     1  UNL1       -0.0738
     13 C           2.0000    2.4254    0.0000 C.3     1  UNL1       -0.0624
     14 C           3.7320    2.4254    0.0000 C.3     1  UNL1       -0.0624
     15 C           2.8660   -2.0746    0.0000 C.2     1  UNL1       -0.0991
     16 C           6.3961    0.9495    0.0000 C.3     1  UNL1       -0.0437
     17 H           3.7255    1.2754    0.0000 H       1  UNL1        0.0352
     18 H           2.3291    1.2354    0.0000 H       1  UNL1        0.0309
     19 H           3.7255   -1.4246    0.0000 H       1  UNL1        0.0376
     20 H           1.7880    1.0080    0.0000 H       1  UNL1        0.0271
     21 H           1.3894    0.3177    0.0000 H       1  UNL1        0.0271
     22 H           5.1599   -1.4244    0.0000 H       1  UNL1        0.0602
     23 H           2.8660    2.5454    0.0000 H       1  UNL1        0.0298
     24 H           1.3894   -0.4669    0.0000 H       1  UNL1        0.0310
     25 H           1.7880   -1.1572    0.0000 H       1  UNL1        0.0310
     26 H           4.6188    1.5800    0.0000 H       1  UNL1        0.0575
     27 H           5.7411   -1.1791    0.0000 H       1  UNL1        0.0335
     28 H           6.1429   -0.4893    0.0000 H       1  UNL1        0.0335
     29 H           2.3100    2.9623    0.0000 H       1  UNL1        0.0232
     30 H           1.4631    2.7354    0.0000 H       1  UNL1        0.0232
     31 H           1.6900    1.8885    0.0000 H       1  UNL1        0.0232
     32 H           4.0420    1.8885    0.0000 H       1  UNL1        0.0232
     33 H           4.2690    2.7354    0.0000 H       1  UNL1        0.0232
     34 H           3.4220    2.9623    0.0000 H       1  UNL1        0.0232
     35 H           2.3291   -2.3846    0.0000 H       1  UNL1        0.0535
     36 H           3.4030   -2.3846    0.0000 H       1  UNL1        0.0535
     37 H           5.1477   -2.4254    0.0000 H       1  UNL1        0.2098
     38 H           6.7082    0.4138    0.0000 H       1  UNL1        0.0274
     39 H           6.9319    1.2616    0.0000 H       1  UNL1        0.0274
     40 H           6.0841    1.4853    0.0000 H       1  UNL1        0.0274
@<TRIPOS>BOND
     1     6     1    1
     2     1    37    1
     3     2     3    1
     4     2     4    1
     5     2    10    1
     6     2    17    1
     7     3     5    1
     8     3     7    1
     9     3    18    1
    10     4     6    1
    11     4     8    1
    12     4    19    1
    13     5     9    1
    14     5    20    1
    15     5    21    1
    16     6    11    1
    17     6    22    1
    18     7    13    1
    19     7    14    1
    20     7    23    1
    21     8     9    1
    22     8    15    2
    23     9    24    1
    24     9    25    1
    25    10    12    2
    26    10    26    1
    27    11    12    1
    28    11    27    1
    29    11    28    1
    30    12    16    1
    31    13    29    1
    32    13    30    1
    33    13    31    1
    34    14    32    1
    35    14    33    1
    36    14    34    1
    37    15    35    1
    38    15    36    1
    39    16    38    1
    40    16    39    1
    41    16    40    1
