@<TRIPOS>MOLECULE
IMPHY005802
 80 84 0 0 0
SMALL
GASTEIGER

@<TRIPOS>ATOM
      1 O           2.5357   -3.2936    0.0000 O.3     1  UNL1       -0.3912
      2 O          11.5367    1.9031    0.0000 O.3     1  UNL1       -0.3907
      3 O           9.7088    3.6669    0.0000 O.3     1  UNL1       -0.4802
      4 O          11.2187    2.8183    0.0000 O.2     1  UNL1       -0.2503
      5 C           7.0628   -1.7413    0.0000 C.3     1  UNL1       -0.0159
      6 C           5.2868   -1.7481    0.0000 C.3     1  UNL1       -0.0218
      7 C           6.1968   -1.2413    0.0000 C.3     1  UNL1       -0.0107
      8 C           5.2787   -2.7897    0.0000 C.3     1  UNL1       -0.0276
      9 C           7.9288   -1.2413    0.0000 C.3     1  UNL1       -0.0011
     10 C           7.0789   -2.7828    0.0000 C.3     1  UNL1       -0.0460
     11 C           4.3433   -3.3395    0.0000 C.3     1  UNL1       -0.0056
     12 C           6.1808   -3.3106    0.0000 C.3     1  UNL1       -0.0486
     13 C           4.3599   -1.1841    0.0000 C.3     1  UNL1       -0.0444
     14 C           7.9288   -0.2413    0.0000 C.2     1  UNL1       -0.0414
     15 C           8.8228   -1.7760    0.0000 C.3     1  UNL1       -0.0423
     16 C           3.4037   -2.7970    0.0000 C.3     1  UNL1        0.0606
     17 C           9.7288   -0.2205    0.0000 C.3     1  UNL1       -0.0081
     18 C           7.7056   -2.5073    0.0000 C.3     1  UNL1       -0.0582
     19 C           6.1968   -0.2413    0.0000 C.2     1  UNL1       -0.0796
     20 C           3.4120   -1.7120    0.0000 C.3     1  UNL1       -0.0258
     21 C           5.2945   -0.7482    0.0000 C.3     1  UNL1       -0.0587
     22 C           8.8228    0.2934    0.0000 C.2     1  UNL1       -0.0587
     23 C           9.7288   -1.2621    0.0000 C.3     1  UNL1       -0.0430
     24 C           8.2709   -2.1810    0.0000 C.3     1  UNL1       -0.0550
     25 C           7.0628    0.2587    0.0000 C.2     1  UNL1       -0.0617
     26 C           3.8467   -4.2074    0.0000 C.3     1  UNL1       -0.0572
     27 C           4.8466   -4.2036    0.0000 C.3     1  UNL1       -0.0572
     28 C          10.6726    0.3148    0.0000 C.3     1  UNL1       -0.0167
     29 C           8.7977    1.3781    0.0000 C.3     1  UNL1       -0.0127
     30 C           9.7288    1.9350    0.0000 C.3     1  UNL1        0.0942
     31 C          10.6726    1.3998    0.0000 C.3     1  UNL1        0.0718
     32 C          10.5987   -0.7138    0.0000 C.3     1  UNL1       -0.0557
     33 C           9.2188    2.7952    0.0000 C.3     1  UNL1       -0.0467
     34 C          10.2188    2.8067    0.0000 C.2     1  UNL1        0.3135
     35 H           6.9329   -0.8163    0.0000 H       1  UNL1        0.0354
     36 H           5.2820   -3.6397    0.0000 H       1  UNL1        0.0312
     37 H           7.2969   -3.3632    0.0000 H       1  UNL1        0.0271
     38 H           7.6880   -2.6673    0.0000 H       1  UNL1        0.0271
     39 H           5.7835   -3.7865    0.0000 H       1  UNL1        0.0268
     40 H           6.5818   -3.7834    0.0000 H       1  UNL1        0.0268
     41 H           4.7681   -0.7174    0.0000 H       1  UNL1        0.0272
     42 H           3.9700   -0.7020    0.0000 H       1  UNL1        0.0272
     43 H           8.4182   -2.2457    0.0000 H       1  UNL1        0.0274
     44 H           9.2164   -2.2550    0.0000 H       1  UNL1        0.0274
     45 H           2.8686   -2.4839    0.0000 H       1  UNL1        0.0599
     46 H           7.2306   -2.9059    0.0000 H       1  UNL1        0.0236
     47 H           8.1041   -2.9823    0.0000 H       1  UNL1        0.0236
     48 H           8.1805   -2.1088    0.0000 H       1  UNL1        0.0236
     49 H           5.6598    0.0687    0.0000 H       1  UNL1        0.0575
     50 H           3.2075   -1.1267    0.0000 H       1  UNL1        0.0290
     51 H           2.8004   -1.8134    0.0000 H       1  UNL1        0.0290
     52 H           5.9145   -0.7529    0.0000 H       1  UNL1        0.0235
     53 H           5.2993   -0.1282    0.0000 H       1  UNL1        0.0235
     54 H           4.6745   -0.7434    0.0000 H       1  UNL1        0.0235
     55 H           9.9379   -1.8458    0.0000 H       1  UNL1        0.0274
     56 H          10.3397   -1.1560    0.0000 H       1  UNL1        0.0274
     57 H           7.6884   -2.3931    0.0000 H       1  UNL1        0.0238
     58 H           8.4830   -2.7635    0.0000 H       1  UNL1        0.0238
     59 H           8.8535   -1.9688    0.0000 H       1  UNL1        0.0238
     60 H           7.0628    0.8787    0.0000 H       1  UNL1        0.0617
     61 H           3.3085   -3.8995    0.0000 H       1  UNL1        0.0236
     62 H           3.5387   -4.7455    0.0000 H       1  UNL1        0.0236
     63 H           4.3848   -4.5153    0.0000 H       1  UNL1        0.0236
     64 H           4.3109   -4.5156    0.0000 H       1  UNL1        0.0236
     65 H           5.1587   -4.7393    0.0000 H       1  UNL1        0.0236
     66 H           5.3824   -3.8915    0.0000 H       1  UNL1        0.0236
     67 H          10.8817   -0.2689    0.0000 H       1  UNL1        0.0299
     68 H          11.2835    0.4209    0.0000 H       1  UNL1        0.0299
     69 H           8.5752    1.9568    0.0000 H       1  UNL1        0.0322
     70 H           8.1894    1.2579    0.0000 H       1  UNL1        0.0322
     71 H          10.6690    2.0197    0.0000 H       1  UNL1        0.0604
     72 H          10.2928   -1.2531    0.0000 H       1  UNL1        0.0238
     73 H          11.1380   -1.0196    0.0000 H       1  UNL1        0.0238
     74 H          10.9045   -0.1745    0.0000 H       1  UNL1        0.0238
     75 H           2.0000   -2.9816    0.0000 H       1  UNL1        0.2098
     76 H           9.7522    3.1114    0.0000 H       1  UNL1        0.0241
     77 H           8.9027    3.3285    0.0000 H       1  UNL1        0.0241
     78 H           8.6855    2.4790    0.0000 H       1  UNL1        0.0241
     79 H          12.0748    1.5952    0.0000 H       1  UNL1        0.2098
     80 H          10.0126    4.2074    0.0000 H       1  UNL1        0.2951
@<TRIPOS>BOND
     1    16     1    1
     2     1    75    1
     3    31     2    1
     4     2    79    1
     5     3    34    1
     6     3    80    1
     7     4    34    2
     8     5     7    1
     9     5     9    1
    10     5    10    1
    11     5    18    1
    12     6     7    1
    13     6     8    1
    14     6    13    1
    15     6    21    1
    16     7    19    1
    17     7    35    1
    18     8    11    1
    19     8    12    1
    20     8    36    1
    21     9    14    1
    22     9    15    1
    23     9    24    1
    24    10    12    1
    25    10    37    1
    26    10    38    1
    27    11    16    1
    28    11    26    1
    29    11    27    1
    30    12    39    1
    31    12    40    1
    32    13    20    1
    33    13    41    1
    34    13    42    1
    35    14    22    2
    36    14    25    1
    37    15    23    1
    38    15    43    1
    39    15    44    1
    40    16    20    1
    41    16    45    1
    42    17    22    1
    43    17    23    1
    44    17    28    1
    45    17    32    1
    46    18    46    1
    47    18    47    1
    48    18    48    1
    49    19    25    2
    50    19    49    1
    51    20    50    1
    52    20    51    1
    53    21    52    1
    54    21    53    1
    55    21    54    1
    56    22    29    1
    57    23    55    1
    58    23    56    1
    59    24    57    1
    60    24    58    1
    61    24    59    1
    62    25    60    1
    63    26    61    1
    64    26    62    1
    65    26    63    1
    66    27    64    1
    67    27    65    1
    68    27    66    1
    69    28    31    1
    70    28    67    1
    71    28    68    1
    72    29    30    1
    73    29    69    1
    74    29    70    1
    75    30    31    1
    76    30    33    1
    77    30    34    1
    78    31    71    1
    79    32    72    1
    80    32    73    1
    81    32    74    1
    82    33    76    1
    83    33    77    1
    84    33    78    1
