@<TRIPOS>MOLECULE
IMPHY005027
 53 53 0 0 0
SMALL
GASTEIGER

@<TRIPOS>ATOM
      1 O           7.7331    0.0000    0.0000 O.3     1  UNL1       -0.4614
      2 O           6.0010   -3.0000    0.0000 O.3     1  UNL1       -0.4614
      3 O           4.2690    4.0000    0.0000 O.3     1  UNL1       -0.4915
      4 O           8.5991   -1.5000    0.0000 O.2     1  UNL1       -0.2512
      5 O           7.7331   -3.0000    0.0000 O.2     1  UNL1       -0.2512
      6 O           2.5369    3.0000    0.0000 O.3     1  UNL1       -0.5033
      7 C           6.8671   -1.5000    0.0000 C.3     1  UNL1        0.0216
      8 C           6.8671   -0.5000    0.0000 C.3     1  UNL1        0.1067
      9 C           6.0010   -2.0000    0.0000 C.3     1  UNL1        0.1064
     10 C           6.0010    0.0000    0.0000 C.3     1  UNL1       -0.0116
     11 C           5.1350   -1.5000    0.0000 C.3     1  UNL1       -0.0158
     12 C           6.0010    1.0000    0.0000 C.3     1  UNL1       -0.0242
     13 C           4.2690   -2.0000    0.0000 C.3     1  UNL1       -0.0526
     14 C           5.1350    1.5000    0.0000 C.ar    1  UNL1       -0.0436
     15 C           3.4030   -1.5000    0.0000 C.3     1  UNL1       -0.0652
     16 C           5.1350    2.5000    0.0000 C.ar    1  UNL1       -0.0131
     17 C           4.2690    1.0000    0.0000 C.ar    1  UNL1       -0.0549
     18 C           8.5991   -0.5000    0.0000 C.2     1  UNL1        0.3042
     19 C           6.8671   -3.5000    0.0000 C.2     1  UNL1        0.3042
     20 C           4.2690    3.0000    0.0000 C.ar    1  UNL1        0.1615
     21 C           3.4030    1.5000    0.0000 C.ar    1  UNL1       -0.0163
     22 C           3.4030    2.5000    0.0000 C.ar    1  UNL1        0.1585
     23 C           9.4651    0.0000    0.0000 C.3     1  UNL1        0.0332
     24 C           6.8671   -4.5000    0.0000 C.3     1  UNL1        0.0332
     25 C           5.1350    4.5000    0.0000 C.3     1  UNL1        0.0790
     26 H           7.0791   -2.0826    0.0000 H       1  UNL1        0.0337
     27 H           7.4776   -1.3923    0.0000 H       1  UNL1        0.0337
     28 H           7.4040   -0.8100    0.0000 H       1  UNL1        0.0735
     29 H           6.5380   -2.3100    0.0000 H       1  UNL1        0.0735
     30 H           5.3905    0.1077    0.0000 H       1  UNL1        0.0304
     31 H           5.7890   -0.5826    0.0000 H       1  UNL1        0.0304
     32 H           5.5335   -1.0250    0.0000 H       1  UNL1        0.0301
     33 H           4.7365   -1.0250    0.0000 H       1  UNL1        0.0301
     34 H           6.6116    0.8923    0.0000 H       1  UNL1        0.0314
     35 H           6.2131    1.5826    0.0000 H       1  UNL1        0.0314
     36 H           3.8705   -2.4750    0.0000 H       1  UNL1        0.0264
     37 H           4.6675   -2.4750    0.0000 H       1  UNL1        0.0264
     38 H           3.7130   -0.9631    0.0000 H       1  UNL1        0.0230
     39 H           2.8660   -1.1900    0.0000 H       1  UNL1        0.0230
     40 H           3.0930   -2.0369    0.0000 H       1  UNL1        0.0230
     41 H           5.6720    2.8100    0.0000 H       1  UNL1        0.0658
     42 H           4.2690    0.3800    0.0000 H       1  UNL1        0.0621
     43 H           2.8660    1.1900    0.0000 H       1  UNL1        0.0655
     44 H           9.7751   -0.5369    0.0000 H       1  UNL1        0.0342
     45 H          10.0021    0.3100    0.0000 H       1  UNL1        0.0342
     46 H           9.1551    0.5369    0.0000 H       1  UNL1        0.0342
     47 H           6.2471   -4.5000    0.0000 H       1  UNL1        0.0342
     48 H           6.8671   -5.1200    0.0000 H       1  UNL1        0.0342
     49 H           7.4871   -4.5000    0.0000 H       1  UNL1        0.0342
     50 H           2.0000    2.6900    0.0000 H       1  UNL1        0.2923
     51 H           5.4450    3.9631    0.0000 H       1  UNL1        0.0660
     52 H           5.6720    4.8100    0.0000 H       1  UNL1        0.0660
     53 H           4.8250    5.0369    0.0000 H       1  UNL1        0.0660
@<TRIPOS>BOND
     1     1     8    1
     2     1    18    1
     3     2     9    1
     4     2    19    1
     5     3    20    1
     6     3    25    1
     7     4    18    2
     8     5    19    2
     9     6    22    1
    10     6    50    1
    11     7     8    1
    12     7     9    1
    13     7    26    1
    14     7    27    1
    15     8    10    1
    16     8    28    1
    17     9    11    1
    18     9    29    1
    19    10    12    1
    20    10    30    1
    21    10    31    1
    22    11    13    1
    23    11    32    1
    24    11    33    1
    25    12    14    1
    26    12    34    1
    27    12    35    1
    28    13    15    1
    29    13    36    1
    30    13    37    1
    31    14    16   ar
    32    14    17   ar
    33    15    38    1
    34    15    39    1
    35    15    40    1
    36    16    20   ar
    37    16    41    1
    38    17    21   ar
    39    17    42    1
    40    18    23    1
    41    19    24    1
    42    20    22   ar
    43    21    22   ar
    44    21    43    1
    45    23    44    1
    46    23    45    1
    47    23    46    1
    48    24    47    1
    49    24    48    1
    50    24    49    1
    51    25    51    1
    52    25    52    1
    53    25    53    1
