@<TRIPOS>MOLECULE
IMPHY013769
 15 15 0 0 0
SMALL
GASTEIGER

@<TRIPOS>ATOM
      1 O           2.0000   -1.4400    0.0000 O.3     1  UNL1       -0.5065
      2 O           4.5981    2.0600    0.0000 O.co2   1  UNL1       -0.5760
      3 O           2.8660    2.0600    0.0000 O.2     1  UNL1        0.0414
      4 N           3.7320    1.5600    0.0000 N.pl3   1  UNL1        0.0797
      5 C           3.7320    0.5600    0.0000 C.ar    1  UNL1        0.2766
      6 C           2.8660    0.0600    0.0000 C.ar    1  UNL1        0.0570
      7 C           2.8660   -0.9400    0.0000 C.ar    1  UNL1        0.1233
      8 C           4.5981    0.0600    0.0000 C.ar    1  UNL1        0.0158
      9 C           3.7320   -1.4400    0.0000 C.ar    1  UNL1       -0.0198
     10 C           4.5981   -0.9400    0.0000 C.ar    1  UNL1       -0.0519
     11 H           2.3291    0.3700    0.0000 H       1  UNL1        0.0722
     12 H           5.1350    0.3700    0.0000 H       1  UNL1        0.0685
     13 H           3.7320   -2.0600    0.0000 H       1  UNL1        0.0654
     14 H           5.1350   -1.2500    0.0000 H       1  UNL1        0.0621
     15 H           2.0000   -2.0600    0.0000 H       1  UNL1        0.2921
@<TRIPOS>UNITY_ATOM_ATTR
2 1
charge -1
4 1
charge 1
@<TRIPOS>BOND
     1     1     7    1
     2     1    15    1
     3     2     4    1
     4     3     4    2
     5     4     5    1
     6     5     6   ar
     7     5     8   ar
     8     6     7   ar
     9     6    11    1
    10     7     9   ar
    11     8    10   ar
    12     8    12    1
    13     9    10   ar
    14     9    13    1
    15    10    14    1
