@<TRIPOS>MOLECULE
IMPHY001799
 46 50 0 0 0
SMALL
GASTEIGER

@<TRIPOS>ATOM
      1 O           6.3749   -1.3642    0.0000 O.3     1  UNL1       -0.3689
      2 O           9.0826    2.6697    0.0000 O.3     1  UNL1       -0.3947
      3 O           2.5369    1.0542    0.0000 O.3     1  UNL1       -0.5067
      4 N           7.9146   -0.3141    0.0000 N.3     1  UNL1       -0.2626
      5 N           5.6588   -0.7482    0.0000 N.ar    1  UNL1       -0.3544
      6 C           7.9146    0.5542    0.0000 C.3     1  UNL1        0.0231
      7 C           7.9146   -2.0506    0.0000 C.3     1  UNL1       -0.0081
      8 C           8.6666    0.9884    0.0000 C.3     1  UNL1        0.0049
      9 C           7.1627   -0.7482    0.0000 C.3     1  UNL1        0.1621
     10 C           7.1627   -1.6165    0.0000 C.3     1  UNL1        0.0027
     11 C           8.6666   -0.7482    0.0000 C.3     1  UNL1        0.0235
     12 C           7.1627    0.9884    0.0000 C.3     1  UNL1       -0.0092
     13 C           8.6666   -1.6165    0.0000 C.2     1  UNL1       -0.0560
     14 C           6.4108   -0.3141    0.0000 C.ar    1  UNL1        0.0675
     15 C           6.4108    0.5542    0.0000 C.ar    1  UNL1       -0.0133
     16 C           9.3600    1.7089    0.0000 C.3     1  UNL1        0.0490
     17 C           4.9069    0.5542    0.0000 C.ar    1  UNL1        0.0067
     18 C           9.5326   -2.1165    0.0000 C.2     1  UNL1       -0.0864
     19 C           4.9069   -0.3141    0.0000 C.ar    1  UNL1        0.0473
     20 C           4.1549    0.9884    0.0000 C.ar    1  UNL1       -0.0108
     21 C           9.5326   -3.1165    0.0000 C.3     1  UNL1       -0.0465
     22 C           4.1549   -0.7482    0.0000 C.ar    1  UNL1       -0.0343
     23 C           3.4030    0.5542    0.0000 C.ar    1  UNL1        0.1176
     24 C           3.4030   -0.3141    0.0000 C.ar    1  UNL1       -0.0182
     25 H           7.9146    1.4042    0.0000 H       1  UNL1        0.0470
     26 H           7.9146   -2.9006    0.0000 H       1  UNL1        0.0351
     27 H           9.2684    0.8394    0.0000 H       1  UNL1        0.0344
     28 H           6.5521   -1.5088    0.0000 H       1  UNL1        0.0316
     29 H           6.9506   -2.1991    0.0000 H       1  UNL1        0.0316
     30 H           9.2772   -0.8559    0.0000 H       1  UNL1        0.0474
     31 H           8.8786   -0.1656    0.0000 H       1  UNL1        0.0474
     32 H           7.5612    1.4633    0.0000 H       1  UNL1        0.0329
     33 H           6.7642    1.4633    0.0000 H       1  UNL1        0.0329
     34 H           9.7253    1.2080    0.0000 H       1  UNL1        0.0560
     35 H           9.9168    1.9817    0.0000 H       1  UNL1        0.0560
     36 H           5.6588   -1.3682    0.0000 H       1  UNL1        0.1657
     37 H           6.4615   -1.9781    0.0000 H       1  UNL1        0.2122
     38 H          10.0696   -1.8065    0.0000 H       1  UNL1        0.0569
     39 H           9.5125    3.1165    0.0000 H       1  UNL1        0.2094
     40 H           4.1549    1.6084    0.0000 H       1  UNL1        0.0661
     41 H           8.9126   -3.1165    0.0000 H       1  UNL1        0.0272
     42 H           9.5326   -3.7365    0.0000 H       1  UNL1        0.0272
     43 H          10.1526   -3.1165    0.0000 H       1  UNL1        0.0272
     44 H           4.1549   -1.3682    0.0000 H       1  UNL1        0.0639
     45 H           2.8660   -0.6241    0.0000 H       1  UNL1        0.0655
     46 H           2.0000    0.7442    0.0000 H       1  UNL1        0.2921
@<TRIPOS>BOND
     1     9     1    1
     2     1    37    1
     3     2    16    1
     4     2    39    1
     5     3    23    1
     6     3    46    1
     7     4     6    1
     8     4     9    1
     9     4    11    1
    10     5    14   ar
    11     5    19   ar
    12     5    36    1
    13     6     8    1
    14     6    12    1
    15     6    25    1
    16     7     8    1
    17     7    10    1
    18     7    13    1
    19     7    26    1
    20     8    16    1
    21     8    27    1
    22     9    10    1
    23     9    14    1
    24    10    28    1
    25    10    29    1
    26    11    13    1
    27    11    30    1
    28    11    31    1
    29    12    15    1
    30    12    32    1
    31    12    33    1
    32    13    18    2
    33    14    15   ar
    34    15    17   ar
    35    16    34    1
    36    16    35    1
    37    17    19   ar
    38    17    20   ar
    39    18    21    1
    40    18    38    1
    41    19    22   ar
    42    20    23   ar
    43    20    40    1
    44    21    41    1
    45    21    42    1
    46    21    43    1
    47    22    24   ar
    48    22    44    1
    49    23    24   ar
    50    24    45    1
