@<TRIPOS>MOLECULE
IMPHY011237
 78 79 0 0 0
SMALL
GASTEIGER

@<TRIPOS>ATOM
      1 O           5.4920   -2.7889    0.0000 O.3     1  UNL1       -0.4854
      2 O           2.0000   -0.7543    0.0000 O.3     1  UNL1       -0.5065
      3 C           6.3981   -2.2751    0.0000 C.3     1  UNL1        0.1082
      4 C           7.3981   -2.2790    0.0000 C.3     1  UNL1       -0.0132
      5 C           6.3981   -1.2335    0.0000 C.3     1  UNL1       -0.0091
      6 C           7.9014   -1.4149    0.0000 C.3     1  UNL1       -0.0492
      7 C           9.4047   -0.5546    0.0000 C.3     1  UNL1       -0.0439
      8 C           8.9014   -1.4187    0.0000 C.3     1  UNL1       -0.0503
      9 C          10.4047   -0.5585    0.0000 C.3     1  UNL1       -0.0505
     10 C           5.4920   -0.7196    0.0000 C.3     1  UNL1       -0.0205
     11 C          10.9081    0.3056    0.0000 C.3     1  UNL1       -0.0526
     12 C           6.8947   -3.1430    0.0000 C.3     1  UNL1       -0.0249
     13 C          11.9081    0.3018    0.0000 C.3     1  UNL1       -0.0505
     14 C          12.4114    1.1659    0.0000 C.3     1  UNL1       -0.0439
     15 C           4.5981   -1.2543    0.0000 C.ar    1  UNL1       -0.0018
     16 C           4.5981   -2.2543    0.0000 C.ar    1  UNL1        0.1278
     17 C          13.4114    1.1620    0.0000 C.3     1  UNL1       -0.0505
     18 C           8.9081    0.3133    0.0000 C.3     1  UNL1       -0.0624
     19 C          13.9147    2.0261    0.0000 C.3     1  UNL1       -0.0526
     20 C           3.7320   -2.7543    0.0000 C.ar    1  UNL1       -0.0021
     21 C          11.9147    2.0338    0.0000 C.3     1  UNL1       -0.0624
     22 C           3.7320   -0.7543    0.0000 C.ar    1  UNL1       -0.0133
     23 C          14.9147    2.0222    0.0000 C.3     1  UNL1       -0.0507
     24 C           2.8660   -2.2543    0.0000 C.ar    1  UNL1       -0.0027
     25 C          15.4180    2.8863    0.0000 C.3     1  UNL1       -0.0467
     26 C           2.8660   -1.2543    0.0000 C.ar    1  UNL1        0.1205
     27 C           3.7320   -3.7543    0.0000 C.3     1  UNL1       -0.0359
     28 C           2.0000   -2.7543    0.0000 C.3     1  UNL1       -0.0359
     29 C          16.4180    2.8825    0.0000 C.3     1  UNL1       -0.0627
     30 C          14.9214    3.7543    0.0000 C.3     1  UNL1       -0.0627
     31 H           7.2881   -2.8891    0.0000 H       1  UNL1        0.0304
     32 H           7.9799   -2.4932    0.0000 H       1  UNL1        0.0304
     33 H           7.0089   -1.3396    0.0000 H       1  UNL1        0.0307
     34 H           6.6071   -0.6498    0.0000 H       1  UNL1        0.0307
     35 H           8.0114   -0.8047    0.0000 H       1  UNL1        0.0267
     36 H           7.3196   -1.2006    0.0000 H       1  UNL1        0.0267
     37 H           9.7168   -0.0189    0.0000 H       1  UNL1        0.0298
     38 H           8.7914   -2.0289    0.0000 H       1  UNL1        0.0268
     39 H           9.4832   -1.6330    0.0000 H       1  UNL1        0.0268
     40 H          10.2947   -1.1686    0.0000 H       1  UNL1        0.0268
     41 H          10.9865   -0.7728    0.0000 H       1  UNL1        0.0268
     42 H           5.8856   -0.2406    0.0000 H       1  UNL1        0.0316
     43 H           5.0874   -0.2498    0.0000 H       1  UNL1        0.0316
     44 H          11.0181    0.9158    0.0000 H       1  UNL1        0.0265
     45 H          10.3263    0.5199    0.0000 H       1  UNL1        0.0265
     46 H           6.3566   -3.4510    0.0000 H       1  UNL1        0.0268
     47 H           7.2027   -3.6812    0.0000 H       1  UNL1        0.0268
     48 H           7.4329   -2.8351    0.0000 H       1  UNL1        0.0268
     49 H          11.7980   -0.3084    0.0000 H       1  UNL1        0.0268
     50 H          12.4898    0.0875    0.0000 H       1  UNL1        0.0268
     51 H          12.7235    1.7016    0.0000 H       1  UNL1        0.0298
     52 H          13.3014    0.5518    0.0000 H       1  UNL1        0.0268
     53 H          13.9932    0.9477    0.0000 H       1  UNL1        0.0268
     54 H           9.4462    0.6213    0.0000 H       1  UNL1        0.0232
     55 H           8.6002    0.8515    0.0000 H       1  UNL1        0.0232
     56 H           8.3700    0.0054    0.0000 H       1  UNL1        0.0232
     57 H          14.0247    2.6362    0.0000 H       1  UNL1        0.0265
     58 H          13.3329    2.2404    0.0000 H       1  UNL1        0.0265
     59 H          12.4529    2.3417    0.0000 H       1  UNL1        0.0232
     60 H          11.6068    2.5719    0.0000 H       1  UNL1        0.0232
     61 H          11.3766    1.7259    0.0000 H       1  UNL1        0.0232
     62 H           3.7320   -0.1343    0.0000 H       1  UNL1        0.0658
     63 H          14.8047    1.4121    0.0000 H       1  UNL1        0.0268
     64 H          15.4965    1.8079    0.0000 H       1  UNL1        0.0268
     65 H          15.7260    2.3482    0.0000 H       1  UNL1        0.0295
     66 H           3.1120   -3.7543    0.0000 H       1  UNL1        0.0279
     67 H           3.7320   -4.3743    0.0000 H       1  UNL1        0.0279
     68 H           4.3520   -3.7543    0.0000 H       1  UNL1        0.0279
     69 H           1.6900   -2.2173    0.0000 H       1  UNL1        0.0279
     70 H           1.4631   -3.0643    0.0000 H       1  UNL1        0.0279
     71 H           2.3100   -3.2912    0.0000 H       1  UNL1        0.0279
     72 H          16.4156    2.2625    0.0000 H       1  UNL1        0.0232
     73 H          17.0380    2.8801    0.0000 H       1  UNL1        0.0232
     74 H          16.4204    3.5025    0.0000 H       1  UNL1        0.0232
     75 H          15.4595    4.0622    0.0000 H       1  UNL1        0.0232
     76 H          14.6135    4.2924    0.0000 H       1  UNL1        0.0232
     77 H          14.3833    3.4464    0.0000 H       1  UNL1        0.0232
     78 H           2.0000   -0.1343    0.0000 H       1  UNL1        0.2921
@<TRIPOS>BOND
     1     1     3    1
     2     1    16    1
     3     2    26    1
     4     2    78    1
     5     3     4    1
     6     3     5    1
     7     3    12    1
     8     4     6    1
     9     4    31    1
    10     4    32    1
    11     5    10    1
    12     5    33    1
    13     5    34    1
    14     6     8    1
    15     6    35    1
    16     6    36    1
    17     7     8    1
    18     7     9    1
    19     7    18    1
    20     7    37    1
    21     8    38    1
    22     8    39    1
    23     9    11    1
    24     9    40    1
    25     9    41    1
    26    10    15    1
    27    10    42    1
    28    10    43    1
    29    11    13    1
    30    11    44    1
    31    11    45    1
    32    12    46    1
    33    12    47    1
    34    12    48    1
    35    13    14    1
    36    13    49    1
    37    13    50    1
    38    14    17    1
    39    14    21    1
    40    14    51    1
    41    15    16   ar
    42    15    22   ar
    43    16    20   ar
    44    17    19    1
    45    17    52    1
    46    17    53    1
    47    18    54    1
    48    18    55    1
    49    18    56    1
    50    19    23    1
    51    19    57    1
    52    19    58    1
    53    20    24   ar
    54    20    27    1
    55    21    59    1
    56    21    60    1
    57    21    61    1
    58    22    26   ar
    59    22    62    1
    60    23    25    1
    61    23    63    1
    62    23    64    1
    63    24    26   ar
    64    24    28    1
    65    25    29    1
    66    25    30    1
    67    25    65    1
    68    27    66    1
    69    27    67    1
    70    27    68    1
    71    28    69    1
    72    28    70    1
    73    28    71    1
    74    29    72    1
    75    29    73    1
    76    29    74    1
    77    30    75    1
    78    30    76    1
    79    30    77    1
