@<TRIPOS>MOLECULE
IMPHY010468
 175 187 0 0 0
SMALL
GASTEIGER

@<TRIPOS>ATOM
      1 O          12.2365    1.5014    0.0000 O.3     1  UNL1       -0.3281
      2 O          13.1185   -1.0401    0.0000 O.3     1  UNL1       -0.4512
      3 O          14.8887   -0.0433    0.0000 O.3     1  UNL1       -0.4500
      4 O          13.7131    2.4545    0.0000 O.3     1  UNL1       -0.4475
      5 O          13.1306    3.0291    0.0000 O.3     1  UNL1       -0.4275
      6 O          11.1277   -1.0061    0.0000 O.3     1  UNL1       -0.4584
      7 O          12.0982   -2.7204    0.0000 O.2     1  UNL1       -0.2449
      8 O          14.5683   -1.7454    0.0000 O.2     1  UNL1       -0.2449
      9 O          12.0806    2.4558    0.0000 O.2     1  UNL1       -0.2448
     10 O          13.9909    4.5324    0.0000 O.2     1  UNL1       -0.2449
     11 O          12.1277   -1.0061    0.0000 O.2     1  UNL1       -0.2449
     12 O          10.9290    3.4271    0.0000 O.3     1  UNL1       -0.4476
     13 O          12.6245   -5.3743    0.0000 O.3     1  UNL1       -0.5028
     14 O          11.6308   -5.3743    0.0000 O.3     1  UNL1       -0.5028
     15 O           8.5772   -3.4271    0.0000 O.3     1  UNL1       -0.4476
     16 O          15.6969   -3.6162    0.0000 O.3     1  UNL1       -0.5032
     17 O          14.6728   -5.3901    0.0000 O.3     1  UNL1       -0.5009
     18 O          10.0831   -5.5222    0.0000 O.3     1  UNL1       -0.5009
     19 O          10.4739    5.8097    0.0000 O.3     1  UNL1       -0.5008
     20 O          13.5964    6.5002    0.0000 O.3     1  UNL1       -0.5032
     21 O           8.3763    0.5502    0.0000 O.3     1  UNL1       -0.4512
     22 O          18.4885    0.1602    0.0000 O.3     1  UNL1       -0.5032
     23 O          17.8476   -3.2441    0.0000 O.3     1  UNL1       -0.5032
     24 O          11.5866    6.8955    0.0000 O.3     1  UNL1       -0.5008
     25 O          19.1508   -1.7270    0.0000 O.3     1  UNL1       -0.5009
     26 O           6.3809    0.4151    0.0000 O.3     1  UNL1       -0.4498
     27 O          17.4588    3.5458    0.0000 O.3     1  UNL1       -0.5032
     28 O          15.7383    0.5392    0.0000 O.3     1  UNL1       -0.5032
     29 O           7.0552   -2.1433    0.0000 O.3     1  UNL1       -0.4464
     30 O          17.4665    1.5458    0.0000 O.3     1  UNL1       -0.5009
     31 O           9.1554   -1.3540    0.0000 O.3     1  UNL1       -0.3846
     32 O          10.2950    0.9442    0.0000 O.3     1  UNL1       -0.4584
     33 O           9.1342    5.1607    0.0000 O.3     1  UNL1       -0.5009
     34 O           7.8189    4.9526    0.0000 O.3     1  UNL1       -0.5028
     35 O           7.0548    1.5597    0.0000 O.2     1  UNL1       -0.2449
     36 O           9.0323   -5.8097    0.0000 O.3     1  UNL1       -0.5008
     37 O           5.0598   -2.2784    0.0000 O.2     1  UNL1       -0.2970
     38 O           5.6168   -2.9778    0.0000 O.2     1  UNL1       -0.2448
     39 O           7.8946    4.4269    0.0000 O.3     1  UNL1       -0.5028
     40 O           7.9196   -6.8955    0.0000 O.3     1  UNL1       -0.5008
     41 O          11.2594    2.1970    0.0000 O.2     1  UNL1       -0.2449
     42 O           5.9098   -6.5002    0.0000 O.3     1  UNL1       -0.5032
     43 O           4.5529   -0.2098    0.0000 O.2     1  UNL1       -0.2449
     44 O           9.7340    5.8284    0.0000 O.3     1  UNL1       -0.5009
     45 O          11.5202    4.8503    0.0000 O.3     1  UNL1       -0.5032
     46 O           2.2730    1.8731    0.0000 O.3     1  UNL1       -0.5032
     47 O           5.1492    3.8038    0.0000 O.3     1  UNL1       -0.5032
     48 O           3.1538    3.6687    0.0000 O.3     1  UNL1       -0.5009
     49 C          13.1185   -0.0401    0.0000 C.3     1  UNL1        0.1730
     50 C          14.0285    0.4667    0.0000 C.3     1  UNL1        0.1851
     51 C          14.0366    1.5083    0.0000 C.3     1  UNL1        0.2053
     52 C          12.2525    0.4599    0.0000 C.3     1  UNL1        0.1371
     53 C          13.1345    2.0291    0.0000 C.3     1  UNL1        0.2465
     54 C          11.3865   -0.0401    0.0000 C.3     1  UNL1        0.1226
     55 C          12.6277   -1.8721    0.0000 C.2     1  UNL1        0.3405
     56 C          15.2199   -0.9868    0.0000 C.2     1  UNL1        0.3399
     57 C          12.8914    3.0411    0.0000 C.2     1  UNL1        0.3436
     58 C          13.1277   -2.7381    0.0000 C.ar    1  UNL1        0.0740
     59 C          13.9947    3.5324    0.0000 C.2     1  UNL1        0.3417
     60 C          11.6277   -1.8721    0.0000 C.2     1  UNL1        0.3401
     61 C          12.6277   -3.6041    0.0000 C.ar    1  UNL1        0.0458
     62 C          11.1277   -2.7381    0.0000 C.ar    1  UNL1        0.0740
     63 C          16.2026   -1.1719    0.0000 C.ar    1  UNL1        0.0661
     64 C          11.6277   -3.6041    0.0000 C.ar    1  UNL1        0.0458
     65 C          12.5680    3.9873    0.0000 C.ar    1  UNL1        0.1085
     66 C          14.8627    3.0358    0.0000 C.ar    1  UNL1        0.0662
     67 C          14.1692   -2.7220    0.0000 C.ar    1  UNL1       -0.0017
     68 C          13.1345   -4.5141    0.0000 C.ar    1  UNL1        0.1708
     69 C          11.1208   -4.5141    0.0000 C.ar    1  UNL1        0.1708
     70 C          10.0862   -2.7220    0.0000 C.ar    1  UNL1       -0.0009
     71 C          11.5868    4.1803    0.0000 C.ar    1  UNL1        0.1876
     72 C          16.5337   -2.1155    0.0000 C.ar    1  UNL1       -0.0023
     73 C          16.8542   -0.4133    0.0000 C.ar    1  UNL1       -0.0023
     74 C          13.2651    4.7613    0.0000 C.ar    1  UNL1        0.0013
     75 C          14.6969   -3.6201    0.0000 C.ar    1  UNL1        0.1628
     76 C          14.1761   -4.5222    0.0000 C.ar    1  UNL1        0.2012
     77 C           9.5584   -3.6201    0.0000 C.ar    1  UNL1        0.1743
     78 C          10.0792   -4.5222    0.0000 C.ar    1  UNL1        0.2021
     79 C          14.8665    2.0358    0.0000 C.ar    1  UNL1       -0.0023
     80 C          15.7268    3.5391    0.0000 C.ar    1  UNL1       -0.0023
     81 C          11.2347    5.1607    0.0000 C.ar    1  UNL1        0.2060
     82 C          12.9358    5.7495    0.0000 C.ar    1  UNL1        0.1630
     83 C          17.8369   -0.5983    0.0000 C.ar    1  UNL1        0.1628
     84 C          17.5165   -2.3005    0.0000 C.ar    1  UNL1        0.1628
     85 C          11.9137    5.9505    0.0000 C.ar    1  UNL1        0.2044
     86 C          18.1681   -1.5419    0.0000 C.ar    1  UNL1        0.2006
     87 C          16.5947    3.0425    0.0000 C.ar    1  UNL1        0.1628
     88 C          15.7345    1.5391    0.0000 C.ar    1  UNL1        0.1628
     89 C           7.9359   -0.3477    0.0000 C.3     1  UNL1        0.1728
     90 C           6.9382   -0.4152    0.0000 C.3     1  UNL1        0.1858
     91 C          16.5986    2.0425    0.0000 C.ar    1  UNL1        0.2006
     92 C           8.9240   -0.3812    0.0000 C.3     1  UNL1        0.1296
     93 C           9.9313    3.3596    0.0000 C.ar    1  UNL1        0.1743
     94 C           6.4978   -1.3130    0.0000 C.3     1  UNL1        0.1979
     95 C           8.4932    2.3942    0.0000 C.ar    1  UNL1        0.0740
     96 C           7.9195   -4.1803    0.0000 C.ar    1  UNL1        0.1876
     97 C           9.7910    0.0937    0.0000 C.3     1  UNL1        0.1222
     98 C           9.4934    2.4580    0.0000 C.ar    1  UNL1       -0.0009
     99 C           7.9359    3.2245    0.0000 C.ar    1  UNL1        0.0458
    100 C           9.3740    4.1898    0.0000 C.ar    1  UNL1        0.2021
    101 C           8.0528    1.4964    0.0000 C.2     1  UNL1        0.3405
    102 C           8.3762    4.1223    0.0000 C.ar    1  UNL1        0.1708
    103 C           6.9383   -3.9873    0.0000 C.ar    1  UNL1        0.1085
    104 C           8.9239    3.2580    0.0000 C.ar    1  UNL1        0.0458
    105 C           5.5001   -1.3805    0.0000 C.2     1  UNL1        0.1645
    106 C           8.2716   -5.1607    0.0000 C.ar    1  UNL1        0.2060
    107 C           6.6148   -3.0411    0.0000 C.2     1  UNL1        0.3438
    108 C           9.7910    2.7832    0.0000 C.ar    1  UNL1        0.0740
    109 C           6.2411   -4.7613    0.0000 C.ar    1  UNL1        0.0013
    110 C          10.2950    1.9328    0.0000 C.2     1  UNL1        0.3401
    111 C           8.8847    4.2870    0.0000 C.ar    1  UNL1        0.1708
    112 C           5.3832    0.3476    0.0000 C.2     1  UNL1        0.3399
    113 C           7.5925   -5.9505    0.0000 C.ar    1  UNL1        0.2044
    114 C           6.5704   -5.7495    0.0000 C.ar    1  UNL1        0.1630
    115 C          10.6791    3.3045    0.0000 C.ar    1  UNL1       -0.0017
    116 C           9.7605    4.8287    0.0000 C.ar    1  UNL1        0.2012
    117 C          10.6637    4.3342    0.0000 C.ar    1  UNL1        0.1628
    118 C           4.8258    1.1778    0.0000 C.ar    1  UNL1        0.0661
    119 C           5.2662    2.0757    0.0000 C.ar    1  UNL1       -0.0023
    120 C           3.8281    1.1103    0.0000 C.ar    1  UNL1       -0.0023
    121 C           3.2708    1.9406    0.0000 C.ar    1  UNL1        0.1628
    122 C           4.7088    2.9059    0.0000 C.ar    1  UNL1        0.1628
    123 C           3.7111    2.8384    0.0000 C.ar    1  UNL1        0.2006
    124 H          13.6531   -0.3543    0.0000 H       1  UNL1        0.0801
    125 H          14.0202   -0.1532    0.0000 H       1  UNL1        0.0813
    126 H          14.6486    1.6076    0.0000 H       1  UNL1        0.0837
    127 H          12.7870    0.7740    0.0000 H       1  UNL1        0.0670
    128 H          12.5958    2.3360    0.0000 H       1  UNL1        0.1098
    129 H          11.2260    0.5587    0.0000 H       1  UNL1        0.0725
    130 H          10.7665   -0.0401    0.0000 H       1  UNL1        0.0725
    131 H          14.4729   -2.1816    0.0000 H       1  UNL1        0.0664
    132 H           9.7824   -2.1816    0.0000 H       1  UNL1        0.0664
    133 H          16.1297   -2.5858    0.0000 H       1  UNL1        0.0663
    134 H          16.6489    0.1717    0.0000 H       1  UNL1        0.0663
    135 H          13.8720    4.6346    0.0000 H       1  UNL1        0.0665
    136 H          14.3308    1.7237    0.0000 H       1  UNL1        0.0663
    137 H          15.7244    4.1591    0.0000 H       1  UNL1        0.0663
    138 H           7.9464   -0.9676    0.0000 H       1  UNL1        0.0801
    139 H          12.9283   -5.9148    0.0000 H       1  UNL1        0.2923
    140 H           7.2112    0.1415    0.0000 H       1  UNL1        0.0815
    141 H          11.3270   -5.9148    0.0000 H       1  UNL1        0.2923
    142 H           9.4905   -0.6329    0.0000 H       1  UNL1        0.0666
    143 H          16.0090   -4.1520    0.0000 H       1  UNL1        0.2923
    144 H          15.2928   -5.3925    0.0000 H       1  UNL1        0.2924
    145 H           6.2248   -1.8696    0.0000 H       1  UNL1        0.0851
    146 H          10.6213   -5.8301    0.0000 H       1  UNL1        0.2924
    147 H           9.8872   -0.5188    0.0000 H       1  UNL1        0.0725
    148 H           9.3601    0.5394    0.0000 H       1  UNL1        0.0725
    149 H           9.8390    1.9433    0.0000 H       1  UNL1        0.0664
    150 H          10.5865    6.4193    0.0000 H       1  UNL1        0.2924
    151 H          14.2043    6.3782    0.0000 H       1  UNL1        0.2923
    152 H          19.0978    0.0455    0.0000 H       1  UNL1        0.2923
    153 H          18.4569   -3.3588    0.0000 H       1  UNL1        0.2923
    154 H          11.9926    7.3641    0.0000 H       1  UNL1        0.2924
    155 H          19.5548   -1.2566    0.0000 H       1  UNL1        0.2924
    156 H          17.4564    4.1658    0.0000 H       1  UNL1        0.2923
    157 H          16.2765    0.2312    0.0000 H       1  UNL1        0.2923
    158 H           4.9435   -1.1075    0.0000 H       1  UNL1        0.1067
    159 H          18.0022    1.8579    0.0000 H       1  UNL1        0.2924
    160 H           8.7048   -1.7799    0.0000 H       1  UNL1        0.2101
    161 H           5.6342   -4.6346    0.0000 H       1  UNL1        0.0665
    162 H          11.2194    3.0005    0.0000 H       1  UNL1        0.0664
    163 H           8.5386    5.3329    0.0000 H       1  UNL1        0.2924
    164 H           7.2003    4.9107    0.0000 H       1  UNL1        0.2923
    165 H           8.9197   -6.4193    0.0000 H       1  UNL1        0.2924
    166 H           7.5125    3.9386    0.0000 H       1  UNL1        0.2923
    167 H           5.8848    2.1175    0.0000 H       1  UNL1        0.0663
    168 H           3.5551    0.5537    0.0000 H       1  UNL1        0.0663
    169 H           7.5136   -7.3641    0.0000 H       1  UNL1        0.2924
    170 H           5.3019   -6.3782    0.0000 H       1  UNL1        0.2923
    171 H           9.1890    6.1241    0.0000 H       1  UNL1        0.2924
    172 H          12.0628    4.5505    0.0000 H       1  UNL1        0.2923
    173 H           2.0000    1.3164    0.0000 H       1  UNL1        0.2923
    174 H           4.8037    4.3185    0.0000 H       1  UNL1        0.2923
    175 H           2.5352    3.6268    0.0000 H       1  UNL1        0.2924
@<TRIPOS>BOND
     1     1    52    1
     2     1    53    1
     3     2    49    1
     4     2    55    1
     5     3    50    1
     6     3    56    1
     7     4    51    1
     8     4    57    1
     9     5    53    1
    10     5    59    1
    11     6    54    1
    12     6    60    1
    13     7    55    2
    14     8    56    2
    15     9    57    2
    16    10    59    2
    17    11    60    2
    18    12    71    1
    19    12    93    1
    20    13    68    1
    21    13   139    1
    22    14    69    1
    23    14   141    1
    24    15    77    1
    25    15    96    1
    26    16    75    1
    27    16   143    1
    28    17    76    1
    29    17   144    1
    30    18    78    1
    31    18   146    1
    32    19    81    1
    33    19   150    1
    34    20    82    1
    35    20   151    1
    36    21    89    1
    37    21   101    1
    38    22    83    1
    39    22   152    1
    40    23    84    1
    41    23   153    1
    42    24    85    1
    43    24   154    1
    44    25    86    1
    45    25   155    1
    46    26    90    1
    47    26   112    1
    48    27    87    1
    49    27   156    1
    50    28    88    1
    51    28   157    1
    52    29    94    1
    53    29   107    1
    54    30    91    1
    55    30   159    1
    56    31    92    1
    57    31   160    1
    58    32    97    1
    59    32   110    1
    60    33   100    1
    61    33   163    1
    62    34   102    1
    63    34   164    1
    64    35   101    2
    65    36   106    1
    66    36   165    1
    67    37   105    2
    68    38   107    2
    69    39   111    1
    70    39   166    1
    71    40   113    1
    72    40   169    1
    73    41   110    2
    74    42   114    1
    75    42   170    1
    76    43   112    2
    77    44   116    1
    78    44   171    1
    79    45   117    1
    80    45   172    1
    81    46   121    1
    82    46   173    1
    83    47   122    1
    84    47   174    1
    85    48   123    1
    86    48   175    1
    87    49    50    1
    88    49    52    1
    89    49   124    1
    90    50    51    1
    91    50   125    1
    92    51    53    1
    93    51   126    1
    94    52    54    1
    95    52   127    1
    96    53   128    1
    97    54   129    1
    98    54   130    1
    99    55    58    1
   100    56    63    1
   101    57    65    1
   102    58    61   ar
   103    58    67   ar
   104    59    66    1
   105    60    62    1
   106    61    64    1
   107    61    68   ar
   108    62    64   ar
   109    62    70   ar
   110    63    72   ar
   111    63    73   ar
   112    64    69   ar
   113    65    71   ar
   114    65    74   ar
   115    66    79   ar
   116    66    80   ar
   117    67    75   ar
   118    67   131    1
   119    68    76   ar
   120    69    78   ar
   121    70    77   ar
   122    70   132    1
   123    71    81   ar
   124    72    84   ar
   125    72   133    1
   126    73    83   ar
   127    73   134    1
   128    74    82   ar
   129    74   135    1
   130    75    76   ar
   131    77    78   ar
   132    79    88   ar
   133    79   136    1
   134    80    87   ar
   135    80   137    1
   136    81    85   ar
   137    82    85   ar
   138    83    86   ar
   139    84    86   ar
   140    87    91   ar
   141    88    91   ar
   142    89    90    1
   143    89    92    1
   144    89   138    1
   145    90    94    1
   146    90   140    1
   147    92    97    1
   148    92   142    1
   149    93    98   ar
   150    93   100   ar
   151    94   105    1
   152    94   145    1
   153    95    98   ar
   154    95    99   ar
   155    95   101    1
   156    96   103   ar
   157    96   106   ar
   158    97   147    1
   159    97   148    1
   160    98   149    1
   161    99   102   ar
   162    99   104    1
   163   100   102   ar
   164   103   107    1
   165   103   109   ar
   166   104   108   ar
   167   104   111   ar
   168   105   158    1
   169   106   113   ar
   170   108   110    1
   171   108   115   ar
   172   109   114   ar
   173   109   161    1
   174   111   116   ar
   175   112   118    1
   176   113   114   ar
   177   115   117   ar
   178   115   162    1
   179   116   117   ar
   180   118   119   ar
   181   118   120   ar
   182   119   122   ar
   183   119   167    1
   184   120   121   ar
   185   120   168    1
   186   121   123   ar
   187   122   123   ar
