@<TRIPOS>MOLECULE
IMPHY014391
 100 104 0 0 0
SMALL
GASTEIGER

@<TRIPOS>ATOM
      1 O           5.5010   -1.6589    0.0000 O.3     1  UNL1       -0.4641
      2 O           4.2410   -0.3988    0.0000 O.2     1  UNL1       -0.2505
      3 O          11.1495   -1.1190    0.0000 O.3     1  UNL1       -0.4914
      4 O           2.5369    0.8800    0.0000 O.3     1  UNL1       -0.4914
      5 O          10.7337   -3.0753    0.0000 O.3     1  UNL1       -0.5031
      6 O          10.5258   -4.0535    0.0000 O.3     1  UNL1       -0.3865
      7 O           2.5369    2.8800    0.0000 O.3     1  UNL1       -0.5031
      8 O           6.0010    3.8800    0.0000 O.3     1  UNL1       -0.3865
      9 O           7.1374   -3.3333    0.0000 O.3     1  UNL1       -0.3943
     10 O           3.4030    5.3800    0.0000 O.3     1  UNL1       -0.3943
     11 O           7.2568   -6.9368    0.0000 O.3     1  UNL1       -0.4914
     12 O           6.8671    7.3800    0.0000 O.3     1  UNL1       -0.4914
     13 O           8.7431   -8.2751    0.0000 O.3     1  UNL1       -0.5033
     14 O           5.1350    8.3799    0.0000 O.3     1  UNL1       -0.5033
     15 C           6.8100   -0.7078    0.0000 C.3     1  UNL1        0.0105
     16 C           6.0010   -0.1200    0.0000 C.3     1  UNL1        0.0666
     17 C           7.7611   -0.3988    0.0000 C.3     1  UNL1       -0.0209
     18 C           6.5010   -1.6589    0.0000 C.3     1  UNL1        0.0963
     19 C           6.0010    0.8800    0.0000 C.3     1  UNL1       -0.0142
     20 C           5.1920   -0.7078    0.0000 C.2     1  UNL1        0.3109
     21 C           8.5043   -1.0680    0.0000 C.ar    1  UNL1       -0.0430
     22 C           5.1350    1.3800    0.0000 C.ar    1  UNL1       -0.0426
     23 C           8.2963   -2.0461    0.0000 C.ar    1  UNL1       -0.0512
     24 C           5.1350    2.3800    0.0000 C.ar    1  UNL1       -0.0512
     25 C           9.0395   -2.7152    0.0000 C.ar    1  UNL1        0.0060
     26 C           8.8316   -3.6934    0.0000 C.3     1  UNL1        0.0409
     27 C           4.2690    2.8800    0.0000 C.ar    1  UNL1        0.0060
     28 C           9.4553   -0.7589    0.0000 C.ar    1  UNL1       -0.0131
     29 C           4.2690    3.8800    0.0000 C.3     1  UNL1        0.0409
     30 C           4.2690    0.8800    0.0000 C.ar    1  UNL1       -0.0131
     31 C           9.9906   -2.4062    0.0000 C.ar    1  UNL1        0.1621
     32 C          10.1985   -1.4281    0.0000 C.ar    1  UNL1        0.1618
     33 C           9.5747   -4.3625    0.0000 C.3     1  UNL1        0.0893
     34 C           3.4030    2.3800    0.0000 C.ar    1  UNL1        0.1621
     35 C           3.4030    1.3800    0.0000 C.ar    1  UNL1        0.1618
     36 C           5.1350    4.3800    0.0000 C.3     1  UNL1        0.0893
     37 C           7.8805   -4.0024    0.0000 C.3     1  UNL1        0.0538
     38 C           3.4030    4.3800    0.0000 C.3     1  UNL1        0.0538
     39 C           9.3668   -5.3406    0.0000 C.ar    1  UNL1       -0.0148
     40 C           5.1350    5.3800    0.0000 C.ar    1  UNL1       -0.0148
     41 C           8.4157   -5.6497    0.0000 C.ar    1  UNL1       -0.0107
     42 C          10.1100   -6.0098    0.0000 C.ar    1  UNL1       -0.0524
     43 C           6.0010    5.8800    0.0000 C.ar    1  UNL1       -0.0107
     44 C           4.2690    5.8800    0.0000 C.ar    1  UNL1       -0.0524
     45 C          11.3574   -0.1409    0.0000 C.3     1  UNL1        0.0790
     46 C           2.5369   -0.1200    0.0000 C.3     1  UNL1        0.0790
     47 C           8.2078   -6.6278    0.0000 C.ar    1  UNL1        0.1616
     48 C           6.0010    6.8800    0.0000 C.ar    1  UNL1        0.1616
     49 C           9.9020   -6.9879    0.0000 C.ar    1  UNL1       -0.0162
     50 C           4.2690    6.8800    0.0000 C.ar    1  UNL1       -0.0162
     51 C           8.9510   -7.2969    0.0000 C.ar    1  UNL1        0.1585
     52 C           5.1350    7.3800    0.0000 C.ar    1  UNL1        0.1585
     53 C           7.0489   -7.9150    0.0000 C.3     1  UNL1        0.0790
     54 C           6.8671    8.3799    0.0000 C.3     1  UNL1        0.0790
     55 H           6.9070   -0.0955    0.0000 H       1  UNL1        0.0345
     56 H           6.5535    0.1614    0.0000 H       1  UNL1        0.0420
     57 H           8.2497   -0.0171    0.0000 H       1  UNL1        0.0317
     58 H           7.4700    0.1486    0.0000 H       1  UNL1        0.0317
     59 H           6.4362   -2.2755    0.0000 H       1  UNL1        0.0700
     60 H           7.1075   -1.7878    0.0000 H       1  UNL1        0.0700
     61 H           6.6116    0.7723    0.0000 H       1  UNL1        0.0321
     62 H           6.2131    1.4626    0.0000 H       1  UNL1        0.0321
     63 H           7.7067   -2.2377    0.0000 H       1  UNL1        0.0624
     64 H           5.6720    2.6900    0.0000 H       1  UNL1        0.0624
     65 H           8.3708   -3.2785    0.0000 H       1  UNL1        0.0401
     66 H           9.5842   -0.1525    0.0000 H       1  UNL1        0.0658
     67 H           4.2690    4.5000    0.0000 H       1  UNL1        0.0401
     68 H           4.2690    0.2600    0.0000 H       1  UNL1        0.0658
     69 H          10.0355   -4.7774    0.0000 H       1  UNL1        0.0650
     70 H           5.1350    3.7600    0.0000 H       1  UNL1        0.0650
     71 H           7.3920   -4.3841    0.0000 H       1  UNL1        0.0564
     72 H           8.1716   -4.5498    0.0000 H       1  UNL1        0.0564
     73 H           2.7924    4.4876    0.0000 H       1  UNL1        0.0564
     74 H           3.1909    3.7973    0.0000 H       1  UNL1        0.0564
     75 H          11.3233   -2.8838    0.0000 H       1  UNL1        0.2923
     76 H          10.9865   -4.4684    0.0000 H       1  UNL1        0.2103
     77 H           2.0000    2.5700    0.0000 H       1  UNL1        0.2923
     78 H           6.5380    4.1899    0.0000 H       1  UNL1        0.2103
     79 H           7.9550   -5.2348    0.0000 H       1  UNL1        0.0659
     80 H          10.6996   -5.8182    0.0000 H       1  UNL1        0.0622
     81 H           6.5380    5.5700    0.0000 H       1  UNL1        0.0659
     82 H           3.7320    5.5700    0.0000 H       1  UNL1        0.0622
     83 H           6.5477   -3.5248    0.0000 H       1  UNL1        0.2094
     84 H           2.8660    5.6899    0.0000 H       1  UNL1        0.2094
     85 H          11.9639   -0.2698    0.0000 H       1  UNL1        0.0660
     86 H          11.4863    0.4656    0.0000 H       1  UNL1        0.0660
     87 H          10.7510   -0.0120    0.0000 H       1  UNL1        0.0660
     88 H           1.9169   -0.1200    0.0000 H       1  UNL1        0.0660
     89 H           2.5369   -0.7400    0.0000 H       1  UNL1        0.0660
     90 H           3.1569   -0.1200    0.0000 H       1  UNL1        0.0660
     91 H          10.3628   -7.4028    0.0000 H       1  UNL1        0.0655
     92 H           3.7320    7.1900    0.0000 H       1  UNL1        0.0655
     93 H           9.2038   -8.6900    0.0000 H       1  UNL1        0.2923
     94 H           4.5981    8.6900    0.0000 H       1  UNL1        0.2923
     95 H           6.4424   -7.7861    0.0000 H       1  UNL1        0.0660
     96 H           6.9200   -8.5214    0.0000 H       1  UNL1        0.0660
     97 H           7.6553   -8.0439    0.0000 H       1  UNL1        0.0660
     98 H           7.4871    8.3799    0.0000 H       1  UNL1        0.0660
     99 H           6.8671    9.0000    0.0000 H       1  UNL1        0.0660
    100 H           6.2471    8.3799    0.0000 H       1  UNL1        0.0660
@<TRIPOS>BOND
     1     1    18    1
     2     1    20    1
     3     2    20    2
     4     3    32    1
     5     3    45    1
     6     4    35    1
     7     4    46    1
     8     5    31    1
     9     5    75    1
    10     6    33    1
    11     6    76    1
    12     7    34    1
    13     7    77    1
    14     8    36    1
    15     8    78    1
    16     9    37    1
    17     9    83    1
    18    10    38    1
    19    10    84    1
    20    11    47    1
    21    11    53    1
    22    12    48    1
    23    12    54    1
    24    13    51    1
    25    13    93    1
    26    14    52    1
    27    14    94    1
    28    15    16    1
    29    15    17    1
    30    15    18    1
    31    15    55    1
    32    16    19    1
    33    16    20    1
    34    16    56    1
    35    17    21    1
    36    17    57    1
    37    17    58    1
    38    18    59    1
    39    18    60    1
    40    19    22    1
    41    19    61    1
    42    19    62    1
    43    21    23   ar
    44    21    28   ar
    45    22    24   ar
    46    22    30   ar
    47    23    25   ar
    48    23    63    1
    49    24    27   ar
    50    24    64    1
    51    25    26    1
    52    25    31   ar
    53    26    33    1
    54    26    37    1
    55    26    65    1
    56    27    29    1
    57    27    34   ar
    58    28    32   ar
    59    28    66    1
    60    29    36    1
    61    29    38    1
    62    29    67    1
    63    30    35   ar
    64    30    68    1
    65    31    32   ar
    66    33    39    1
    67    33    69    1
    68    34    35   ar
    69    36    40    1
    70    36    70    1
    71    37    71    1
    72    37    72    1
    73    38    73    1
    74    38    74    1
    75    39    41   ar
    76    39    42   ar
    77    40    43   ar
    78    40    44   ar
    79    41    47   ar
    80    41    79    1
    81    42    49   ar
    82    42    80    1
    83    43    48   ar
    84    43    81    1
    85    44    50   ar
    86    44    82    1
    87    45    85    1
    88    45    86    1
    89    45    87    1
    90    46    88    1
    91    46    89    1
    92    46    90    1
    93    47    51   ar
    94    48    52   ar
    95    49    51   ar
    96    49    91    1
    97    50    52   ar
    98    50    92    1
    99    53    95    1
   100    53    96    1
   101    53    97    1
   102    54    98    1
   103    54    99    1
   104    54   100    1
