@<TRIPOS>MOLECULE
IMPHY004623
 54 61 0 0 0
SMALL
GASTEIGER

@<TRIPOS>ATOM
      1 O           9.5494   -1.7196    0.0000 O.2     1  UNL1       -0.2864
      2 O           3.4890    1.7794    0.0000 O.2     1  UNL1       -0.2864
      3 O           7.8136    3.2557    0.0000 O.3     1  UNL1       -0.5060
      4 O           8.6657    2.7638    0.0000 O.3     1  UNL1       -0.5060
      5 O           8.7654   -3.2563    0.0000 O.3     1  UNL1       -0.5060
      6 O           2.5501    0.3321    0.0000 O.3     1  UNL1       -0.5060
      7 O          10.4039   -0.2594    0.0000 O.3     1  UNL1       -0.5059
      8 O           4.3263    3.2495    0.0000 O.3     1  UNL1       -0.5059
      9 C           6.9348   -0.2503    0.0000 C.ar    1  UNL1        0.0005
     10 C           6.0688    0.2497    0.0000 C.ar    1  UNL1        0.0005
     11 C           6.9508   -1.2918    0.0000 C.ar    1  UNL1        0.0056
     12 C           5.1588   -0.2572    0.0000 C.ar    1  UNL1        0.0056
     13 C           7.8008    0.2497    0.0000 C.ar    1  UNL1        0.0090
     14 C           6.0688    1.2497    0.0000 C.ar    1  UNL1        0.0090
     15 C           6.0528   -1.8196    0.0000 C.ar    1  UNL1       -0.0055
     16 C           5.1507   -1.2988    0.0000 C.ar    1  UNL1       -0.0055
     17 C           6.9348    1.7497    0.0000 C.ar    1  UNL1        0.0363
     18 C           7.8008    1.2497    0.0000 C.ar    1  UNL1        0.0363
     19 C           4.3194    0.2711    0.0000 C.ar    1  UNL1        0.0721
     20 C           7.8280   -1.7546    0.0000 C.ar    1  UNL1        0.0721
     21 C           5.2105    1.7466    0.0000 C.ar    1  UNL1        0.0723
     22 C           8.6603   -0.2451    0.0000 C.ar    1  UNL1        0.0723
     23 C           4.2357   -1.7969    0.0000 C.ar    1  UNL1       -0.0387
     24 C           6.0789   -2.8611    0.0000 C.ar    1  UNL1       -0.0387
     25 C           8.6737   -1.2367    0.0000 C.2     1  UNL1        0.2013
     26 C           4.3450    1.2624    0.0000 C.2     1  UNL1        0.2013
     27 C           6.9447    2.7609    0.0000 C.ar    1  UNL1        0.1288
     28 C           8.6716    1.7638    0.0000 C.ar    1  UNL1        0.1288
     29 C           3.3932   -0.2058    0.0000 C.ar    1  UNL1        0.1285
     30 C           7.8781   -2.7952    0.0000 C.ar    1  UNL1        0.1285
     31 C           5.1970    2.7578    0.0000 C.ar    1  UNL1        0.1317
     32 C           9.5427    0.2488    0.0000 C.ar    1  UNL1        0.1317
     33 C           6.9977   -3.3522    0.0000 C.ar    1  UNL1       -0.0159
     34 C           3.3510   -1.2468    0.0000 C.ar    1  UNL1       -0.0159
     35 C           9.5484    1.2600    0.0000 C.ar    1  UNL1        0.0227
     36 C           6.0700    3.2683    0.0000 C.ar    1  UNL1        0.0227
     37 C           4.2068   -2.7965    0.0000 C.3     1  UNL1       -0.0390
     38 C           5.2277   -3.3859    0.0000 C.3     1  UNL1       -0.0390
     39 H           2.8031   -1.5369    0.0000 H       1  UNL1        0.0657
     40 H           7.0204   -3.9717    0.0000 H       1  UNL1        0.0657
     41 H           6.0688    3.8883    0.0000 H       1  UNL1        0.0691
     42 H          10.0859    1.5691    0.0000 H       1  UNL1        0.0691
     43 H           3.5871   -2.7786    0.0000 H       1  UNL1        0.0278
     44 H           4.9023   -2.8581    0.0000 H       1  UNL1        0.0278
     45 H           4.6999   -3.7113    0.0000 H       1  UNL1        0.0278
     46 H           5.5530   -3.9136    0.0000 H       1  UNL1        0.0278
     47 H           4.1889   -3.4162    0.0000 H       1  UNL1        0.0278
     48 H           4.8266   -2.8144    0.0000 H       1  UNL1        0.0278
     49 H           7.8173    3.8757    0.0000 H       1  UNL1        0.2922
     50 H           9.2008    3.0770    0.0000 H       1  UNL1        0.2922
     51 H           2.0000    0.0462    0.0000 H       1  UNL1        0.2922
     52 H           8.7929   -3.8757    0.0000 H       1  UNL1        0.2922
     53 H          10.9438    0.0455    0.0000 H       1  UNL1        0.2922
     54 H           4.3204    3.8695    0.0000 H       1  UNL1        0.2922
@<TRIPOS>BOND
     1     1    25    2
     2     2    26    2
     3     3    27    1
     4     3    49    1
     5     4    28    1
     6     4    50    1
     7     5    30    1
     8     5    52    1
     9     6    29    1
    10     6    51    1
    11     7    32    1
    12     7    53    1
    13     8    31    1
    14     8    54    1
    15     9    10   ar
    16     9    11   ar
    17     9    13   ar
    18    10    12   ar
    19    10    14   ar
    20    11    15   ar
    21    11    20   ar
    22    12    16   ar
    23    12    19   ar
    24    13    18   ar
    25    13    22   ar
    26    14    17   ar
    27    14    21   ar
    28    15    16   ar
    29    15    24   ar
    30    16    23   ar
    31    17    18   ar
    32    17    27   ar
    33    18    28   ar
    34    19    26    1
    35    19    29   ar
    36    20    25    1
    37    20    30   ar
    38    21    26    1
    39    21    31   ar
    40    22    25    1
    41    22    32   ar
    42    23    34   ar
    43    23    37    1
    44    24    33   ar
    45    24    38    1
    46    27    36   ar
    47    28    35   ar
    48    29    34   ar
    49    30    33   ar
    50    31    36   ar
    51    32    35   ar
    52    33    40    1
    53    34    39    1
    54    35    42    1
    55    36    41    1
    56    37    43    1
    57    37    47    1
    58    37    48    1
    59    38    44    1
    60    38    45    1
    61    38    46    1
