@<TRIPOS>MOLECULE
IMPHY015978
 100 99 0 0 0
SMALL
GASTEIGER

@<TRIPOS>ATOM
      1 O           4.5981   -0.5950    0.0000 O.3     1  UNL1       -0.3918
      2 O          14.9904   -0.5950    0.0000 O.2     1  UNL1       -0.2970
      3 O          16.7224   -0.5950    0.0000 O.2     1  UNL1       -0.2970
      4 C           8.0622    0.4050    0.0000 C.3     1  UNL1       -0.0531
      5 C           8.9282    0.9050    0.0000 C.3     1  UNL1       -0.0531
      6 C           7.1962    0.9050    0.0000 C.3     1  UNL1       -0.0530
      7 C           9.7942    0.4050    0.0000 C.3     1  UNL1       -0.0531
      8 C           6.3301    0.4050    0.0000 C.3     1  UNL1       -0.0507
      9 C          22.7846    0.9050    0.0000 C.3     1  UNL1       -0.0531
     10 C          23.6506    0.4050    0.0000 C.3     1  UNL1       -0.0531
     11 C          10.6603    0.9050    0.0000 C.3     1  UNL1       -0.0531
     12 C          21.9186    0.4050    0.0000 C.3     1  UNL1       -0.0531
     13 C          24.5167    0.9050    0.0000 C.3     1  UNL1       -0.0531
     14 C          21.0526    0.9050    0.0000 C.3     1  UNL1       -0.0531
     15 C           5.4641    0.9050    0.0000 C.3     1  UNL1       -0.0269
     16 C          11.5263    0.4050    0.0000 C.3     1  UNL1       -0.0530
     17 C          25.3827    0.4050    0.0000 C.3     1  UNL1       -0.0531
     18 C          20.1865    0.4050    0.0000 C.3     1  UNL1       -0.0530
     19 C           4.5981    0.4050    0.0000 C.3     1  UNL1        0.0552
     20 C          12.3923    0.9050    0.0000 C.3     1  UNL1       -0.0527
     21 C          26.2487    0.9050    0.0000 C.3     1  UNL1       -0.0531
     22 C          19.3205    0.9050    0.0000 C.3     1  UNL1       -0.0527
     23 C          13.2583    0.4050    0.0000 C.3     1  UNL1       -0.0464
     24 C          27.1147    0.4050    0.0000 C.3     1  UNL1       -0.0531
     25 C          18.4545    0.4050    0.0000 C.3     1  UNL1       -0.0464
     26 C           3.7320    0.9050    0.0000 C.3     1  UNL1       -0.0271
     27 C          14.1244    0.9050    0.0000 C.3     1  UNL1        0.0062
     28 C          17.5885    0.9050    0.0000 C.3     1  UNL1        0.0062
     29 C          27.9808    0.9050    0.0000 C.3     1  UNL1       -0.0533
     30 C           2.8660    0.4050    0.0000 C.3     1  UNL1       -0.0536
     31 C          15.8564    0.9050    0.0000 C.3     1  UNL1        0.0643
     32 C          14.9904    0.4050    0.0000 C.2     1  UNL1        0.1404
     33 C          16.7224    0.4050    0.0000 C.2     1  UNL1        0.1404
     34 C          28.8468    0.4050    0.0000 C.3     1  UNL1       -0.0559
     35 C           2.0000    0.9050    0.0000 C.3     1  UNL1       -0.0652
     36 C          29.7128    0.9050    0.0000 C.3     1  UNL1       -0.0653
     37 H           7.6636   -0.0699    0.0000 H       1  UNL1        0.0265
     38 H           8.4607   -0.0699    0.0000 H       1  UNL1        0.0265
     39 H           9.3267    1.3800    0.0000 H       1  UNL1        0.0265
     40 H           8.5297    1.3800    0.0000 H       1  UNL1        0.0265
     41 H           7.5947    1.3800    0.0000 H       1  UNL1        0.0265
     42 H           6.7976    1.3800    0.0000 H       1  UNL1        0.0265
     43 H           9.3957   -0.0699    0.0000 H       1  UNL1        0.0265
     44 H          10.1928   -0.0699    0.0000 H       1  UNL1        0.0265
     45 H           5.9316   -0.0699    0.0000 H       1  UNL1        0.0266
     46 H           6.7287   -0.0699    0.0000 H       1  UNL1        0.0266
     47 H          23.1831    1.3800    0.0000 H       1  UNL1        0.0265
     48 H          22.3861    1.3800    0.0000 H       1  UNL1        0.0265
     49 H          23.2521   -0.0699    0.0000 H       1  UNL1        0.0265
     50 H          24.0492   -0.0699    0.0000 H       1  UNL1        0.0265
     51 H          11.0588    1.3800    0.0000 H       1  UNL1        0.0265
     52 H          10.2617    1.3800    0.0000 H       1  UNL1        0.0265
     53 H          21.5201   -0.0699    0.0000 H       1  UNL1        0.0265
     54 H          22.3171   -0.0699    0.0000 H       1  UNL1        0.0265
     55 H          24.9152    1.3800    0.0000 H       1  UNL1        0.0265
     56 H          24.1181    1.3800    0.0000 H       1  UNL1        0.0265
     57 H          21.4511    1.3800    0.0000 H       1  UNL1        0.0265
     58 H          20.6540    1.3800    0.0000 H       1  UNL1        0.0265
     59 H           5.8626    1.3800    0.0000 H       1  UNL1        0.0290
     60 H           5.0656    1.3800    0.0000 H       1  UNL1        0.0290
     61 H          11.1278   -0.0699    0.0000 H       1  UNL1        0.0265
     62 H          11.9248   -0.0699    0.0000 H       1  UNL1        0.0265
     63 H          24.9842   -0.0699    0.0000 H       1  UNL1        0.0265
     64 H          25.7812   -0.0699    0.0000 H       1  UNL1        0.0265
     65 H          19.7880   -0.0699    0.0000 H       1  UNL1        0.0265
     66 H          20.5851   -0.0699    0.0000 H       1  UNL1        0.0265
     67 H           5.1350    0.0950    0.0000 H       1  UNL1        0.0593
     68 H          12.7908    1.3800    0.0000 H       1  UNL1        0.0265
     69 H          11.9938    1.3800    0.0000 H       1  UNL1        0.0265
     70 H          26.6472    1.3800    0.0000 H       1  UNL1        0.0265
     71 H          25.8502    1.3800    0.0000 H       1  UNL1        0.0265
     72 H          19.7190    1.3800    0.0000 H       1  UNL1        0.0265
     73 H          18.9220    1.3800    0.0000 H       1  UNL1        0.0265
     74 H          12.8598   -0.0699    0.0000 H       1  UNL1        0.0269
     75 H          13.6569   -0.0699    0.0000 H       1  UNL1        0.0269
     76 H          26.7162   -0.0699    0.0000 H       1  UNL1        0.0265
     77 H          27.5133   -0.0699    0.0000 H       1  UNL1        0.0265
     78 H          18.0560   -0.0699    0.0000 H       1  UNL1        0.0269
     79 H          18.8530   -0.0699    0.0000 H       1  UNL1        0.0269
     80 H           4.1306    1.3800    0.0000 H       1  UNL1        0.0290
     81 H           3.3335    1.3800    0.0000 H       1  UNL1        0.0290
     82 H          14.5229    1.3800    0.0000 H       1  UNL1        0.0342
     83 H          13.7258    1.3800    0.0000 H       1  UNL1        0.0342
     84 H          17.9870    1.3800    0.0000 H       1  UNL1        0.0342
     85 H          17.1899    1.3800    0.0000 H       1  UNL1        0.0342
     86 H          28.3793    1.3800    0.0000 H       1  UNL1        0.0265
     87 H          27.5822    1.3800    0.0000 H       1  UNL1        0.0265
     88 H           2.4675   -0.0699    0.0000 H       1  UNL1        0.0263
     89 H           3.2646   -0.0699    0.0000 H       1  UNL1        0.0263
     90 H          16.2549    1.3800    0.0000 H       1  UNL1        0.0419
     91 H          15.4579    1.3800    0.0000 H       1  UNL1        0.0419
     92 H          28.4483   -0.0699    0.0000 H       1  UNL1        0.0263
     93 H          29.2453   -0.0699    0.0000 H       1  UNL1        0.0263
     94 H           4.0611   -0.9050    0.0000 H       1  UNL1        0.2098
     95 H           2.3100    1.4419    0.0000 H       1  UNL1        0.0230
     96 H           1.4631    1.2150    0.0000 H       1  UNL1        0.0230
     97 H           1.6900    0.3681    0.0000 H       1  UNL1        0.0230
     98 H          30.0228    0.3681    0.0000 H       1  UNL1        0.0230
     99 H          30.2497    1.2150    0.0000 H       1  UNL1        0.0230
    100 H          29.4028    1.4419    0.0000 H       1  UNL1        0.0230
@<TRIPOS>BOND
     1     1    19    1
     2     1    94    1
     3     2    32    2
     4     3    33    2
     5     4     5    1
     6     4     6    1
     7     4    37    1
     8     4    38    1
     9     5     7    1
    10     5    39    1
    11     5    40    1
    12     6     8    1
    13     6    41    1
    14     6    42    1
    15     7    11    1
    16     7    43    1
    17     7    44    1
    18     8    15    1
    19     8    45    1
    20     8    46    1
    21     9    10    1
    22     9    12    1
    23     9    47    1
    24     9    48    1
    25    10    13    1
    26    10    49    1
    27    10    50    1
    28    11    16    1
    29    11    51    1
    30    11    52    1
    31    12    14    1
    32    12    53    1
    33    12    54    1
    34    13    17    1
    35    13    55    1
    36    13    56    1
    37    14    18    1
    38    14    57    1
    39    14    58    1
    40    15    19    1
    41    15    59    1
    42    15    60    1
    43    16    20    1
    44    16    61    1
    45    16    62    1
    46    17    21    1
    47    17    63    1
    48    17    64    1
    49    18    22    1
    50    18    65    1
    51    18    66    1
    52    19    26    1
    53    19    67    1
    54    20    23    1
    55    20    68    1
    56    20    69    1
    57    21    24    1
    58    21    70    1
    59    21    71    1
    60    22    25    1
    61    22    72    1
    62    22    73    1
    63    23    27    1
    64    23    74    1
    65    23    75    1
    66    24    29    1
    67    24    76    1
    68    24    77    1
    69    25    28    1
    70    25    78    1
    71    25    79    1
    72    26    30    1
    73    26    80    1
    74    26    81    1
    75    27    32    1
    76    27    82    1
    77    27    83    1
    78    28    33    1
    79    28    84    1
    80    28    85    1
    81    29    34    1
    82    29    86    1
    83    29    87    1
    84    30    35    1
    85    30    88    1
    86    30    89    1
    87    31    32    1
    88    31    33    1
    89    31    90    1
    90    31    91    1
    91    34    36    1
    92    34    92    1
    93    34    93    1
    94    35    95    1
    95    35    96    1
    96    35    97    1
    97    36    98    1
    98    36    99    1
    99    36   100    1
