@<TRIPOS>MOLECULE
IMPHY003269
 88 88 0 0 0
SMALL
GASTEIGER

@<TRIPOS>ATOM
      1 O           6.7603    0.9621    0.0000 O.2     1  UNL1       -0.2758
      2 N          10.0913   -0.1004    0.0000 N.3     1  UNL1       -0.3019
      3 N          12.8007    2.3696    0.0000 N.3     1  UNL1       -0.3053
      4 N           7.3818    2.3696    0.0000 N.am    1  UNL1       -0.3152
      5 N           9.5912    5.2955    0.0000 N.3     1  UNL1       -0.3053
      6 C           9.1083    0.0834    0.0000 C.3     1  UNL1        0.0184
      7 C           8.7470   -0.8491    0.0000 C.3     1  UNL1       -0.0369
      8 C           7.7589   -1.0025    0.0000 C.3     1  UNL1       -0.0516
      9 C           8.2581    0.6098    0.0000 C.3     1  UNL1        0.0395
     10 C          11.0742    0.0834    0.0000 C.3     1  UNL1        0.0000
     11 C           7.3976   -1.9350    0.0000 C.3     1  UNL1       -0.0530
     12 C          11.9244    0.6098    0.0000 C.3     1  UNL1       -0.0274
     13 C           6.4095   -2.0884    0.0000 C.3     1  UNL1       -0.0531
     14 C          12.5271    1.4078    0.0000 C.3     1  UNL1       -0.0002
     15 C           6.0482   -3.0208    0.0000 C.3     1  UNL1       -0.0531
     16 C          10.0913   -1.1004    0.0000 C.3     1  UNL1       -0.0125
     17 C           5.0601   -3.1742    0.0000 C.3     1  UNL1       -0.0531
     18 C           7.6554    1.4078    0.0000 C.2     1  UNL1        0.2145
     19 C          12.7085    3.3654    0.0000 C.3     1  UNL1       -0.0014
     20 C          12.2627    4.2605    0.0000 C.3     1  UNL1       -0.0391
     21 C           4.6988   -4.1067    0.0000 C.3     1  UNL1       -0.0531
     22 C          11.5237    4.9342    0.0000 C.3     1  UNL1       -0.0391
     23 C          10.5913    5.2955    0.0000 C.3     1  UNL1       -0.0014
     24 C           7.4740    3.3654    0.0000 C.3     1  UNL1        0.0127
     25 C           7.9198    4.2605    0.0000 C.3     1  UNL1       -0.0246
     26 C           8.6588    4.9342    0.0000 C.3     1  UNL1        0.0000
     27 C           3.7106   -4.2601    0.0000 C.3     1  UNL1       -0.0531
     28 C          13.7965    2.2774    0.0000 C.3     1  UNL1       -0.0128
     29 C           3.3494   -5.1926    0.0000 C.3     1  UNL1       -0.0533
     30 C           9.4075    6.2784    0.0000 C.3     1  UNL1       -0.0128
     31 C           2.3612   -5.3460    0.0000 C.3     1  UNL1       -0.0559
     32 C           2.0000   -6.2784    0.0000 C.3     1  UNL1       -0.0653
     33 H           9.5219   -0.6592    0.0000 H       1  UNL1        0.0467
     34 H           8.7343   -1.4690    0.0000 H       1  UNL1        0.0280
     35 H           9.3553   -0.9693    0.0000 H       1  UNL1        0.0280
     36 H           7.7716   -0.3826    0.0000 H       1  UNL1        0.0266
     37 H           7.1506   -0.8823    0.0000 H       1  UNL1        0.0266
     38 H           7.6568    0.4586    0.0000 H       1  UNL1        0.0374
     39 H           8.6758    1.0680    0.0000 H       1  UNL1        0.0374
     40 H          10.9416   -0.5223    0.0000 H       1  UNL1        0.0427
     41 H          10.8503    0.6615    0.0000 H       1  UNL1        0.0427
     42 H           7.3849   -2.5548    0.0000 H       1  UNL1        0.0265
     43 H           8.0059   -2.0552    0.0000 H       1  UNL1        0.0265
     44 H          12.0195   -0.0029    0.0000 H       1  UNL1        0.0290
     45 H          11.5067    1.0680    0.0000 H       1  UNL1        0.0290
     46 H           6.4222   -1.4685    0.0000 H       1  UNL1        0.0265
     47 H           5.8012   -1.9682    0.0000 H       1  UNL1        0.0265
     48 H          12.8371    0.8709    0.0000 H       1  UNL1        0.0427
     49 H          11.9721    1.6842    0.0000 H       1  UNL1        0.0427
     50 H           6.0355   -3.6407    0.0000 H       1  UNL1        0.0265
     51 H           6.6565   -3.1410    0.0000 H       1  UNL1        0.0265
     52 H           9.4712   -1.1004    0.0000 H       1  UNL1        0.0391
     53 H          10.0913   -1.7204    0.0000 H       1  UNL1        0.0391
     54 H          10.7113   -1.1004    0.0000 H       1  UNL1        0.0391
     55 H           5.0728   -2.5544    0.0000 H       1  UNL1        0.0265
     56 H           4.4518   -3.0541    0.0000 H       1  UNL1        0.0265
     57 H          13.2993    3.1774    0.0000 H       1  UNL1        0.0426
     58 H          12.1121    3.1957    0.0000 H       1  UNL1        0.0426
     59 H          12.8816    4.2987    0.0000 H       1  UNL1        0.0278
     60 H          11.7680    3.8869    0.0000 H       1  UNL1        0.0278
     61 H           4.6861   -4.7266    0.0000 H       1  UNL1        0.0265
     62 H           5.3071   -4.2269    0.0000 H       1  UNL1        0.0265
     63 H          12.0870    5.1934    0.0000 H       1  UNL1        0.0278
     64 H          11.1973    4.4071    0.0000 H       1  UNL1        0.0278
     65 H          11.0229    5.7406    0.0000 H       1  UNL1        0.0426
     66 H          10.4773    4.6860    0.0000 H       1  UNL1        0.0426
     67 H           6.7644    2.3124    0.0000 H       1  UNL1        0.1487
     68 H           7.0706    3.8362    0.0000 H       1  UNL1        0.0462
     69 H           8.0704    3.1957    0.0000 H       1  UNL1        0.0462
     70 H           7.7137    4.8453    0.0000 H       1  UNL1        0.0293
     71 H           8.4145    3.8869    0.0000 H       1  UNL1        0.0293
     72 H           8.6779    5.5539    0.0000 H       1  UNL1        0.0427
     73 H           8.9852    4.4071    0.0000 H       1  UNL1        0.0427
     74 H           3.7234   -3.6402    0.0000 H       1  UNL1        0.0265
     75 H           3.1024   -4.1399    0.0000 H       1  UNL1        0.0265
     76 H          13.7393    1.6600    0.0000 H       1  UNL1        0.0391
     77 H          14.4138    2.2202    0.0000 H       1  UNL1        0.0391
     78 H          13.8537    2.8947    0.0000 H       1  UNL1        0.0391
     79 H           3.3367   -5.8124    0.0000 H       1  UNL1        0.0265
     80 H           3.9576   -5.3128    0.0000 H       1  UNL1        0.0265
     81 H          10.0169    6.3924    0.0000 H       1  UNL1        0.0391
     82 H           9.2936    6.8879    0.0000 H       1  UNL1        0.0391
     83 H           8.7981    6.1645    0.0000 H       1  UNL1        0.0391
     84 H           2.3740   -4.7261    0.0000 H       1  UNL1        0.0263
     85 H           1.7530   -5.2258    0.0000 H       1  UNL1        0.0263
     86 H           1.4219   -6.0545    0.0000 H       1  UNL1        0.0230
     87 H           1.7760   -6.8566    0.0000 H       1  UNL1        0.0230
     88 H           2.5781   -6.5024    0.0000 H       1  UNL1        0.0230
@<TRIPOS>BOND
     1     1    18    2
     2     2     6    1
     3     2    10    1
     4     2    16    1
     5     3    14    1
     6     3    19    1
     7     3    28    1
     8     4    18   am
     9     4    24    1
    10     4    67    1
    11     5    23    1
    12     5    26    1
    13     5    30    1
    14     6     7    1
    15     6     9    1
    16     6    33    1
    17     7     8    1
    18     7    34    1
    19     7    35    1
    20     8    11    1
    21     8    36    1
    22     8    37    1
    23     9    18    1
    24     9    38    1
    25     9    39    1
    26    10    12    1
    27    10    40    1
    28    10    41    1
    29    11    13    1
    30    11    42    1
    31    11    43    1
    32    12    14    1
    33    12    44    1
    34    12    45    1
    35    13    15    1
    36    13    46    1
    37    13    47    1
    38    14    48    1
    39    14    49    1
    40    15    17    1
    41    15    50    1
    42    15    51    1
    43    16    52    1
    44    16    53    1
    45    16    54    1
    46    17    21    1
    47    17    55    1
    48    17    56    1
    49    19    20    1
    50    19    57    1
    51    19    58    1
    52    20    22    1
    53    20    59    1
    54    20    60    1
    55    21    27    1
    56    21    61    1
    57    21    62    1
    58    22    23    1
    59    22    63    1
    60    22    64    1
    61    23    65    1
    62    23    66    1
    63    24    25    1
    64    24    68    1
    65    24    69    1
    66    25    26    1
    67    25    70    1
    68    25    71    1
    69    26    72    1
    70    26    73    1
    71    27    29    1
    72    27    74    1
    73    27    75    1
    74    28    76    1
    75    28    77    1
    76    28    78    1
    77    29    31    1
    78    29    79    1
    79    29    80    1
    80    30    81    1
    81    30    82    1
    82    30    83    1
    83    31    32    1
    84    31    84    1
    85    31    85    1
    86    32    86    1
    87    32    87    1
    88    32    88    1
