@<TRIPOS>MOLECULE
IMPHY012364
 48 50 0 0 0
SMALL
GASTEIGER

@<TRIPOS>ATOM
      1 O           5.5220    0.9611    0.0000 O.3     1  UNL1       -0.4592
      2 O           2.9239    0.4611    0.0000 O.3     1  UNL1       -0.4599
      3 O           6.9662   -0.1264    0.0000 O.2     1  UNL1       -0.2505
      4 O           3.8571   -2.9632    0.0000 O.3     1  UNL1       -0.3912
      5 O           2.0000   -0.9215    0.0000 O.2     1  UNL1       -0.2504
      6 N           4.8651    3.4330    0.0000 N.3     1  UNL1       -0.2886
      7 C           4.6559    2.4611    0.0000 C.3     1  UNL1        0.0723
      8 C           5.5220    1.9611    0.0000 C.3     1  UNL1        0.1235
      9 C           6.2590    2.6282    0.0000 C.3     1  UNL1       -0.0010
     10 C           5.8539    3.5360    0.0000 C.3     1  UNL1        0.0033
     11 C           3.7899    1.9611    0.0000 C.2     1  UNL1       -0.0148
     12 C           5.3695    2.5601    0.0000 C.3     1  UNL1        0.0182
     13 C           4.7748    1.7460    0.0000 C.2     1  UNL1       -0.0660
     14 C           4.6310   -1.2460    0.0000 C.3     1  UNL1       -0.0159
     15 C           5.1310   -0.3799    0.0000 C.3     1  UNL1        0.0570
     16 C           3.6310   -1.2460    0.0000 C.3     1  UNL1        0.0853
     17 C           3.7899    0.9611    0.0000 C.3     1  UNL1        0.1152
     18 C           5.9970    0.1201    0.0000 C.2     1  UNL1        0.3105
     19 C           3.2483   -2.1698    0.0000 C.3     1  UNL1        0.0656
     20 C           2.9239   -0.5389    0.0000 C.2     1  UNL1        0.3133
     21 C           5.1310   -2.1120    0.0000 C.3     1  UNL1       -0.0608
     22 C           4.4239    0.3272    0.0000 C.3     1  UNL1       -0.0520
     23 C           2.2569   -2.3004    0.0000 C.3     1  UNL1       -0.0382
     24 H           4.1548    2.8262    0.0000 H       1  UNL1        0.0547
     25 H           6.0887    1.7097    0.0000 H       1  UNL1        0.0753
     26 H           6.6244    2.1274    0.0000 H       1  UNL1        0.0314
     27 H           6.7955    2.9390    0.0000 H       1  UNL1        0.0314
     28 H           6.4435    3.7278    0.0000 H       1  UNL1        0.0428
     29 H           5.7251    4.1425    0.0000 H       1  UNL1        0.0428
     30 H           5.8148    2.1286    0.0000 H       1  UNL1        0.0470
     31 H           5.8583    2.9415    0.0000 H       1  UNL1        0.0470
     32 H           4.9946    1.1663    0.0000 H       1  UNL1        0.0586
     33 H           4.3210   -1.7829    0.0000 H       1  UNL1        0.0315
     34 H           4.5163   -0.4609    0.0000 H       1  UNL1        0.0413
     35 H           3.0229   -1.3669    0.0000 H       1  UNL1        0.0442
     36 H           4.0020    0.3785    0.0000 H       1  UNL1        0.0746
     37 H           4.4005    1.0688    0.0000 H       1  UNL1        0.0746
     38 H           3.8630   -2.0889    0.0000 H       1  UNL1        0.0599
     39 H           4.5940   -2.4220    0.0000 H       1  UNL1        0.0233
     40 H           5.4410   -2.6489    0.0000 H       1  UNL1        0.0233
     41 H           5.6679   -1.8020    0.0000 H       1  UNL1        0.0233
     42 H           4.8623    0.7656    0.0000 H       1  UNL1        0.0238
     43 H           3.9855    0.7656    0.0000 H       1  UNL1        0.0238
     44 H           3.9855   -0.1112    0.0000 H       1  UNL1        0.0238
     45 H           2.1759   -1.6857    0.0000 H       1  UNL1        0.0255
     46 H           1.6422   -2.3813    0.0000 H       1  UNL1        0.0255
     47 H           2.3378   -2.9151    0.0000 H       1  UNL1        0.0255
     48 H           3.6198   -3.5360    0.0000 H       1  UNL1        0.2098
@<TRIPOS>BOND
     1     1     8    1
     2     1    18    1
     3     2    17    1
     4     2    20    1
     5     3    18    2
     6     4    19    1
     7     4    48    1
     8     5    20    2
     9     6     7    1
    10     6    10    1
    11     6    12    1
    12     7     8    1
    13     7    11    1
    14     7    24    1
    15     8     9    1
    16     8    25    1
    17     9    10    1
    18     9    26    1
    19     9    27    1
    20    10    28    1
    21    10    29    1
    22    11    13    2
    23    11    17    1
    24    12    13    1
    25    12    30    1
    26    12    31    1
    27    13    32    1
    28    14    15    1
    29    14    16    1
    30    14    21    1
    31    14    33    1
    32    15    18    1
    33    15    22    1
    34    15    34    1
    35    16    19    1
    36    16    20    1
    37    16    35    1
    38    17    36    1
    39    17    37    1
    40    19    23    1
    41    19    38    1
    42    21    39    1
    43    21    40    1
    44    21    41    1
    45    22    42    1
    46    22    43    1
    47    22    44    1
    48    23    45    1
    49    23    46    1
    50    23    47    1
