@<TRIPOS>MOLECULE
IMPHY009168
 34 36 0 0 0
SMALL
GASTEIGER

@<TRIPOS>ATOM
      1 O           6.0290   -0.6193    0.0000 O.2     1  UNL1       -0.4505
      2 O           4.2690   -1.5846    0.0000 O.3     1  UNL1       -0.4885
      3 O           4.2690    2.4154    0.0000 O.3     1  UNL1       -0.5058
      4 O           2.5369   -0.5846    0.0000 O.3     1  UNL1       -0.5031
      5 O           6.0174    2.4500    0.0000 O.2     1  UNL1       -0.2869
      6 O           6.9273   -2.1054    0.0000 O.3     1  UNL1       -0.5061
      7 C           5.1350    0.9154    0.0000 C.ar    1  UNL1        0.1091
      8 C           5.1350   -0.0846    0.0000 C.ar    1  UNL1        0.1878
      9 C           6.9350   -0.1054    0.0000 C.ar    1  UNL1        0.1429
     10 C           4.2690   -0.5846    0.0000 C.ar    1  UNL1        0.2049
     11 C           6.0290    1.4501    0.0000 C.ar    1  UNL1        0.1967
     12 C           4.2690    1.4154    0.0000 C.ar    1  UNL1        0.1349
     13 C           7.7991   -0.6088    0.0000 C.ar    1  UNL1        0.0588
     14 C           6.9350    0.9362    0.0000 C.ar    1  UNL1        0.0289
     15 C           3.4030   -0.0846    0.0000 C.ar    1  UNL1        0.1657
     16 C           3.4030    0.9154    0.0000 C.ar    1  UNL1        0.0259
     17 C           7.7953   -1.6087    0.0000 C.ar    1  UNL1        0.1275
     18 C           8.6671   -0.1121    0.0000 C.ar    1  UNL1       -0.0476
     19 C           8.6594   -2.1121    0.0000 C.ar    1  UNL1       -0.0195
     20 C           9.5312   -0.6154    0.0000 C.ar    1  UNL1       -0.0609
     21 C           9.5273   -1.6154    0.0000 C.ar    1  UNL1       -0.0583
     22 C           3.4030   -2.0846    0.0000 C.3     1  UNL1        0.0791
     23 H           7.4708    1.2483    0.0000 H       1  UNL1        0.0693
     24 H           2.8660    1.2254    0.0000 H       1  UNL1        0.0692
     25 H           8.6694    0.5079    0.0000 H       1  UNL1        0.0626
     26 H           8.6570   -2.7321    0.0000 H       1  UNL1        0.0654
     27 H          10.0693   -0.3075    0.0000 H       1  UNL1        0.0618
     28 H          10.0630   -1.9275    0.0000 H       1  UNL1        0.0619
     29 H           3.7320    2.7254    0.0000 H       1  UNL1        0.2922
     30 H           2.0000   -0.2746    0.0000 H       1  UNL1        0.2923
     31 H           3.0930   -1.5477    0.0000 H       1  UNL1        0.0660
     32 H           2.8660   -2.3946    0.0000 H       1  UNL1        0.0660
     33 H           3.7130   -2.6215    0.0000 H       1  UNL1        0.0660
     34 H           6.9249   -2.7254    0.0000 H       1  UNL1        0.2922
@<TRIPOS>BOND
     1     1     8   ar
     2     1     9   ar
     3     2    10    1
     4     2    22    1
     5     3    12    1
     6     3    29    1
     7     4    15    1
     8     4    30    1
     9     5    11    2
    10     6    17    1
    11     6    34    1
    12     7     8   ar
    13     7    11   ar
    14     7    12   ar
    15     8    10   ar
    16     9    13    1
    17     9    14   ar
    18    10    15   ar
    19    11    14   ar
    20    12    16   ar
    21    13    17   ar
    22    13    18   ar
    23    14    23    1
    24    15    16   ar
    25    16    24    1
    26    17    19   ar
    27    18    20   ar
    28    18    25    1
    29    19    21   ar
    30    19    26    1
    31    20    21   ar
    32    20    27    1
    33    21    28    1
    34    22    31    1
    35    22    32    1
    36    22    33    1
