@<TRIPOS>MOLECULE
IMPHY016214
 26 26 0 0 0
SMALL
GASTEIGER

@<TRIPOS>ATOM
      1 O           2.0000   -0.7593    0.0000 O.2     1  UNL1       -0.2971
      2 C           3.7601   -0.4806    0.0000 C.3     1  UNL1        0.0201
      3 C           3.7601    0.5194    0.0000 C.3     1  UNL1       -0.0346
      4 C           4.5691   -1.0684    0.0000 C.3     1  UNL1       -0.0429
      5 C           4.2601   -2.0194    0.0000 C.3     1  UNL1       -0.0457
      6 C           2.9511   -1.0684    0.0000 C.2     1  UNL1        0.1367
      7 C           3.2601   -2.0194    0.0000 C.3     1  UNL1        0.0061
      8 C           4.6261    1.0194    0.0000 C.3     1  UNL1       -0.0527
      9 C           2.8940    1.0194    0.0000 C.3     1  UNL1       -0.0618
     10 C           4.6261    2.0194    0.0000 C.3     1  UNL1       -0.0650
     11 H           4.3125   -0.1991    0.0000 H       1  UNL1        0.0380
     12 H           3.2231    0.2094    0.0000 H       1  UNL1        0.0305
     13 H           5.1355   -1.3205    0.0000 H       1  UNL1        0.0272
     14 H           4.8791   -0.5314    0.0000 H       1  UNL1        0.0272
     15 H           4.1953   -2.6360    0.0000 H       1  UNL1        0.0269
     16 H           4.8665   -2.1483    0.0000 H       1  UNL1        0.0269
     17 H           2.6536   -2.1483    0.0000 H       1  UNL1        0.0342
     18 H           3.3249   -2.6360    0.0000 H       1  UNL1        0.0342
     19 H           4.8382    0.4368    0.0000 H       1  UNL1        0.0265
     20 H           5.2367    1.1271    0.0000 H       1  UNL1        0.0265
     21 H           3.2040    1.5564    0.0000 H       1  UNL1        0.0233
     22 H           2.3571    1.3294    0.0000 H       1  UNL1        0.0233
     23 H           2.5840    0.4825    0.0000 H       1  UNL1        0.0233
     24 H           5.2461    2.0194    0.0000 H       1  UNL1        0.0230
     25 H           4.6261    2.6394    0.0000 H       1  UNL1        0.0230
     26 H           4.0061    2.0194    0.0000 H       1  UNL1        0.0230
@<TRIPOS>BOND
     1     1     6    2
     2     2     3    1
     3     2     4    1
     4     2     6    1
     5     2    11    1
     6     3     8    1
     7     3     9    1
     8     3    12    1
     9     4     5    1
    10     4    13    1
    11     4    14    1
    12     5     7    1
    13     5    15    1
    14     5    16    1
    15     6     7    1
    16     7    17    1
    17     7    18    1
    18     8    10    1
    19     8    19    1
    20     8    20    1
    21     9    21    1
    22     9    22    1
    23     9    23    1
    24    10    24    1
    25    10    25    1
    26    10    26    1
