@<TRIPOS>MOLECULE
IMPHY017077
 32 31 0 0 0
SMALL
GASTEIGER

@<TRIPOS>ATOM
      1 C           3.7320    0.0000    0.0000 C.3     1  UNL1       -0.0351
      2 C           4.5981    0.5000    0.0000 C.3     1  UNL1       -0.0479
      3 C           2.8660   -0.5000    0.0000 C.3     1  UNL1       -0.0507
      4 C           5.4641    0.0000    0.0000 C.3     1  UNL1       -0.0526
      5 C           3.2320    0.8660    0.0000 C.3     1  UNL1       -0.0598
      6 C           4.2320   -0.8660    0.0000 C.3     1  UNL1       -0.0598
      7 C           6.3301    0.5000    0.0000 C.3     1  UNL1       -0.0533
      8 C           2.0000   -0.0000    0.0000 C.3     1  UNL1       -0.0648
      9 C           7.1962   -0.0000    0.0000 C.3     1  UNL1       -0.0559
     10 C           8.0622    0.5000    0.0000 C.3     1  UNL1       -0.0653
     11 H           4.9966    0.9749    0.0000 H       1  UNL1        0.0270
     12 H           4.1996    0.9749    0.0000 H       1  UNL1        0.0270
     13 H           2.4675   -0.9749    0.0000 H       1  UNL1        0.0268
     14 H           3.2646   -0.9749    0.0000 H       1  UNL1        0.0268
     15 H           5.0656   -0.4749    0.0000 H       1  UNL1        0.0265
     16 H           5.8626   -0.4749    0.0000 H       1  UNL1        0.0265
     17 H           3.7690    1.1760    0.0000 H       1  UNL1        0.0235
     18 H           2.9220    1.4030    0.0000 H       1  UNL1        0.0235
     19 H           2.6951    0.5560    0.0000 H       1  UNL1        0.0235
     20 H           3.6951   -1.1760    0.0000 H       1  UNL1        0.0235
     21 H           4.5420   -1.4030    0.0000 H       1  UNL1        0.0235
     22 H           4.7690   -0.5560    0.0000 H       1  UNL1        0.0235
     23 H           6.7287    0.9749    0.0000 H       1  UNL1        0.0265
     24 H           5.9316    0.9749    0.0000 H       1  UNL1        0.0265
     25 H           2.3100    0.5369    0.0000 H       1  UNL1        0.0230
     26 H           1.4631    0.3100    0.0000 H       1  UNL1        0.0230
     27 H           1.6900   -0.5369    0.0000 H       1  UNL1        0.0230
     28 H           6.7976   -0.4749    0.0000 H       1  UNL1        0.0263
     29 H           7.5947   -0.4749    0.0000 H       1  UNL1        0.0263
     30 H           8.3722   -0.0369    0.0000 H       1  UNL1        0.0230
     31 H           8.5991    0.8100    0.0000 H       1  UNL1        0.0230
     32 H           7.7522    1.0369    0.0000 H       1  UNL1        0.0230
@<TRIPOS>BOND
     1     1     2    1
     2     1     3    1
     3     1     5    1
     4     1     6    1
     5     2     4    1
     6     2    11    1
     7     2    12    1
     8     3     8    1
     9     3    13    1
    10     3    14    1
    11     4     7    1
    12     4    15    1
    13     4    16    1
    14     5    17    1
    15     5    18    1
    16     5    19    1
    17     6    20    1
    18     6    21    1
    19     6    22    1
    20     7     9    1
    21     7    23    1
    22     7    24    1
    23     8    25    1
    24     8    26    1
    25     8    27    1
    26     9    10    1
    27     9    28    1
    28     9    29    1
    29    10    30    1
    30    10    31    1
    31    10    32    1
