@<TRIPOS>MOLECULE
IMPHY007682
 95 100 0 0 0
SMALL
GASTEIGER

@<TRIPOS>ATOM
      1 O           9.3553    4.3472    0.0000 O.3     1  UNL1       -0.4602
      2 O           7.5747    4.8410    0.0000 O.2     1  UNL1       -0.2505
      3 O          10.3312   -1.5310    0.0000 O.3     1  UNL1       -0.3407
      4 O          12.7971    3.6893    0.0000 O.3     1  UNL1       -0.4647
      5 O          11.0989    4.0298    0.0000 O.2     1  UNL1       -0.2453
      6 O           8.5991   -1.5310    0.0000 O.3     1  UNL1       -0.3405
      7 O          12.7799   -1.3674    0.0000 O.2     1  UNL1       -0.4707
      8 O          10.3312   -3.5310    0.0000 O.3     1  UNL1       -0.3841
      9 O           8.5991   -4.5310    0.0000 O.3     1  UNL1       -0.3864
     10 O           6.8671   -3.5310    0.0000 O.3     1  UNL1       -0.3865
     11 O           6.8671   -0.5310    0.0000 O.3     1  UNL1       -0.3460
     12 O           5.1350   -0.5310    0.0000 O.3     1  UNL1       -0.3405
     13 O           6.8671    1.4690    0.0000 O.3     1  UNL1       -0.3841
     14 O           5.1350    2.4690    0.0000 O.3     1  UNL1       -0.3864
     15 O           3.4030    1.4690    0.0000 O.3     1  UNL1       -0.3865
     16 O           2.5369   -0.0310    0.0000 O.3     1  UNL1       -0.3924
     17 C           9.4651    0.9690    0.0000 C.3     1  UNL1       -0.0127
     18 C          10.4597    1.0735    0.0000 C.3     1  UNL1       -0.0215
     19 C          10.6676    2.0517    0.0000 C.3     1  UNL1        0.0397
     20 C           8.4150    2.7376    0.0000 C.3     1  UNL1        0.0655
     21 C           9.4075    2.8595    0.0000 C.3     1  UNL1        0.1136
     22 C           7.7799    1.6866    0.0000 C.3     1  UNL1       -0.0014
     23 C          11.2229    0.3647    0.0000 C.3     1  UNL1       -0.0453
     24 C           9.4651   -0.0310    0.0000 C.3     1  UNL1       -0.0158
     25 C          11.6531    2.3888    0.0000 C.2     1  UNL1        0.0423
     26 C           8.5991    0.4690    0.0000 C.3     1  UNL1       -0.0584
     27 C           8.3627    4.2253    0.0000 C.2     1  UNL1        0.3111
     28 C          10.8755    3.0298    0.0000 C.3     1  UNL1       -0.0516
     29 C          12.2160    0.6789    0.0000 C.3     1  UNL1       -0.0337
     30 C          12.4326    1.6978    0.0000 C.2     1  UNL1       -0.0734
     31 C          10.3312   -0.5310    0.0000 C.3     1  UNL1        0.0902
     32 C          11.8497    3.3693    0.0000 C.2     1  UNL1        0.3352
     33 C          11.1972   -1.0310    0.0000 C.ar    1  UNL1        0.0189
     34 C           9.4651   -2.0310    0.0000 C.3     1  UNL1        0.1886
     35 C          11.3017   -2.0255    0.0000 C.ar    1  UNL1       -0.0183
     36 C          12.1107   -0.6243    0.0000 C.ar    1  UNL1        0.0973
     37 C           9.4651   -3.0310    0.0000 C.3     1  UNL1        0.1341
     38 C           8.5991   -3.5310    0.0000 C.3     1  UNL1        0.1141
     39 C           7.7331   -2.0310    0.0000 C.3     1  UNL1        0.1134
     40 C           7.7331   -3.0310    0.0000 C.3     1  UNL1        0.1119
     41 C          12.2799   -2.2334    0.0000 C.ar    1  UNL1        0.0920
     42 C          12.9937    4.6698    0.0000 C.3     1  UNL1        0.0820
     43 C           6.8671   -1.5310    0.0000 C.3     1  UNL1        0.0796
     44 C           6.0010   -0.0310    0.0000 C.3     1  UNL1        0.1880
     45 C           6.0010    0.9690    0.0000 C.3     1  UNL1        0.1341
     46 C           5.1350    1.4690    0.0000 C.3     1  UNL1        0.1141
     47 C           4.2690    0.9690    0.0000 C.3     1  UNL1        0.1119
     48 C           4.2690   -0.0310    0.0000 C.3     1  UNL1        0.1130
     49 C           3.4030   -0.5310    0.0000 C.3     1  UNL1        0.0730
     50 H          10.2829    0.2421    0.0000 H       1  UNL1        0.0316
     51 H           7.5713    2.6341    0.0000 H       1  UNL1        0.0420
     52 H          10.2512    2.9631    0.0000 H       1  UNL1        0.0743
     53 H           7.1672    1.7818    0.0000 H       1  UNL1        0.0309
     54 H           7.9243    1.0836    0.0000 H       1  UNL1        0.0309
     55 H          10.7295   -0.0107    0.0000 H       1  UNL1        0.0271
     56 H          11.5083   -0.1857    0.0000 H       1  UNL1        0.0271
     57 H           8.8546    0.0767    0.0000 H       1  UNL1        0.0299
     58 H           9.2531   -0.6136    0.0000 H       1  UNL1        0.0299
     59 H           8.2891    1.0059    0.0000 H       1  UNL1        0.0235
     60 H           8.0622    0.1590    0.0000 H       1  UNL1        0.0235
     61 H           8.9091   -0.0679    0.0000 H       1  UNL1        0.0235
     62 H          11.4819    2.9009    0.0000 H       1  UNL1        0.0239
     63 H          11.0044    3.6363    0.0000 H       1  UNL1        0.0239
     64 H          10.2690    3.1587    0.0000 H       1  UNL1        0.0239
     65 H          12.2991    0.0645    0.0000 H       1  UNL1        0.0308
     66 H          12.8356    0.6557    0.0000 H       1  UNL1        0.0308
     67 H          13.0215    1.8917    0.0000 H       1  UNL1        0.0577
     68 H           9.7942   -0.8410    0.0000 H       1  UNL1        0.0648
     69 H          10.0021   -2.3410    0.0000 H       1  UNL1        0.0938
     70 H          10.8410   -2.4404    0.0000 H       1  UNL1        0.0652
     71 H          12.2396   -0.0178    0.0000 H       1  UNL1        0.1033
     72 H           9.4651   -3.6510    0.0000 H       1  UNL1        0.0671
     73 H           8.0622   -3.8410    0.0000 H       1  UNL1        0.0648
     74 H           7.7331   -1.4110    0.0000 H       1  UNL1        0.0647
     75 H           7.1962   -2.7210    0.0000 H       1  UNL1        0.0647
     76 H          12.5320   -2.7998    0.0000 H       1  UNL1        0.1029
     77 H          13.6016    4.5479    0.0000 H       1  UNL1        0.0661
     78 H          13.1156    5.2777    0.0000 H       1  UNL1        0.0661
     79 H          12.3858    4.7916    0.0000 H       1  UNL1        0.0661
     80 H           6.2565   -1.4233    0.0000 H       1  UNL1        0.0587
     81 H           6.6550   -2.1136    0.0000 H       1  UNL1        0.0587
     82 H          10.8681   -3.2210    0.0000 H       1  UNL1        0.2101
     83 H           8.0622   -4.8410    0.0000 H       1  UNL1        0.2100
     84 H           6.3301   -3.2210    0.0000 H       1  UNL1        0.2100
     85 H           6.5380    0.2790    0.0000 H       1  UNL1        0.0937
     86 H           6.0010    1.5890    0.0000 H       1  UNL1        0.0671
     87 H           4.5981    1.7790    0.0000 H       1  UNL1        0.0648
     88 H           4.8311    1.5890    0.0000 H       1  UNL1        0.0647
     89 H           4.2690   -0.6510    0.0000 H       1  UNL1        0.0647
     90 H           3.0044   -1.0059    0.0000 H       1  UNL1        0.0584
     91 H           3.8015   -1.0059    0.0000 H       1  UNL1        0.0584
     92 H           6.8671    2.0890    0.0000 H       1  UNL1        0.2101
     93 H           4.5981    2.7790    0.0000 H       1  UNL1        0.2100
     94 H           3.4030    2.0890    0.0000 H       1  UNL1        0.2100
     95 H           2.0000   -0.3410    0.0000 H       1  UNL1        0.2095
@<TRIPOS>BOND
     1     1    21    1
     2     1    27    1
     3     2    27    2
     4    31     3    1
     5    34     3    1
     6     4    32    1
     7     4    42    1
     8     5    32    2
     9     6    34    1
    10     6    39    1
    11     7    36   ar
    12     7    41   ar
    13    37     8    1
    14     8    82    1
    15    38     9    1
    16     9    83    1
    17    40    10    1
    18    10    84    1
    19    11    43    1
    20    44    11    1
    21    12    44    1
    22    12    48    1
    23    45    13    1
    24    13    92    1
    25    46    14    1
    26    14    93    1
    27    47    15    1
    28    15    94    1
    29    16    49    1
    30    16    95    1
    31    17    18    1
    32    17    20    1
    33    17    24    1
    34    17    26    1
    35    18    19    1
    36    18    23    1
    37    18    50    1
    38    19    21    1
    39    19    25    1
    40    19    28    1
    41    20    22    1
    42    20    27    1
    43    20    51    1
    44    21    22    1
    45    21    52    1
    46    22    53    1
    47    22    54    1
    48    23    29    1
    49    23    55    1
    50    23    56    1
    51    24    31    1
    52    24    57    1
    53    24    58    1
    54    25    30    2
    55    25    32    1
    56    26    59    1
    57    26    60    1
    58    26    61    1
    59    28    62    1
    60    28    63    1
    61    28    64    1
    62    29    30    1
    63    29    65    1
    64    29    66    1
    65    30    67    1
    66    31    33    1
    67    31    68    1
    68    33    35   ar
    69    33    36   ar
    70    34    37    1
    71    34    69    1
    72    35    41   ar
    73    35    70    1
    74    36    71    1
    75    37    38    1
    76    37    72    1
    77    38    40    1
    78    38    73    1
    79    39    40    1
    80    39    43    1
    81    39    74    1
    82    40    75    1
    83    41    76    1
    84    42    77    1
    85    42    78    1
    86    42    79    1
    87    43    80    1
    88    43    81    1
    89    44    45    1
    90    44    85    1
    91    45    46    1
    92    45    86    1
    93    46    47    1
    94    46    87    1
    95    47    48    1
    96    47    88    1
    97    48    49    1
    98    48    89    1
    99    49    90    1
   100    49    91    1
