@<TRIPOS>MOLECULE
IMPHY002798
 36 37 0 0 0
SMALL
GASTEIGER

@<TRIPOS>ATOM
      1 C           3.7320   -0.2500    0.0000 C.3     1  UNL1       -0.0133
      2 C           3.7320    0.7500    0.0000 C.3     1  UNL1       -0.0134
      3 C           2.8660   -0.7500    0.0000 C.3     1  UNL1       -0.0342
      4 C           2.0000   -0.2500    0.0000 C.3     1  UNL1       -0.0460
      5 C           4.6260    1.2847    0.0000 C.3     1  UNL1       -0.0423
      6 C           2.8660    1.2500    0.0000 C.2     1  UNL1       -0.0729
      7 C           2.0000    0.7500    0.0000 C.3     1  UNL1       -0.0314
      8 C           4.6260   -0.7847    0.0000 C.2     1  UNL1       -0.0811
      9 C           2.8660   -1.7500    0.0000 C.3     1  UNL1       -0.0525
     10 C           5.5321    0.7708    0.0000 C.3     1  UNL1       -0.0314
     11 C           5.5321   -0.2708    0.0000 C.2     1  UNL1       -0.0762
     12 C           2.0000   -2.2500    0.0000 C.3     1  UNL1       -0.0650
     13 C           2.8660    2.2500    0.0000 C.2     1  UNL1       -0.0992
     14 C           6.3961   -0.7742    0.0000 C.3     1  UNL1       -0.0438
     15 H           3.7255   -1.1000    0.0000 H       1  UNL1        0.0351
     16 H           3.7255    1.6000    0.0000 H       1  UNL1        0.0351
     17 H           2.3291   -1.0600    0.0000 H       1  UNL1        0.0307
     18 H           1.3894   -0.1423    0.0000 H       1  UNL1        0.0271
     19 H           1.7880   -0.8326    0.0000 H       1  UNL1        0.0271
     20 H           5.0196    1.7637    0.0000 H       1  UNL1        0.0274
     21 H           4.2214    1.7544    0.0000 H       1  UNL1        0.0274
     22 H           1.7880    1.3326    0.0000 H       1  UNL1        0.0310
     23 H           1.3894    0.6423    0.0000 H       1  UNL1        0.0310
     24 H           4.6188   -1.4046    0.0000 H       1  UNL1        0.0575
     25 H           3.0781   -2.3326    0.0000 H       1  UNL1        0.0265
     26 H           3.4766   -1.6423    0.0000 H       1  UNL1        0.0265
     27 H           6.1429    0.6647    0.0000 H       1  UNL1        0.0310
     28 H           5.7411    1.3545    0.0000 H       1  UNL1        0.0310
     29 H           1.6900   -1.7131    0.0000 H       1  UNL1        0.0230
     30 H           1.4631   -2.5600    0.0000 H       1  UNL1        0.0230
     31 H           2.3100   -2.7869    0.0000 H       1  UNL1        0.0230
     32 H           3.4030    2.5600    0.0000 H       1  UNL1        0.0534
     33 H           2.3291    2.5600    0.0000 H       1  UNL1        0.0534
     34 H           6.0841   -1.3099    0.0000 H       1  UNL1        0.0274
     35 H           6.9319   -1.0862    0.0000 H       1  UNL1        0.0274
     36 H           6.7082   -0.2384    0.0000 H       1  UNL1        0.0274
@<TRIPOS>BOND
     1     1     2    1
     2     1     3    1
     3     1     8    1
     4     1    15    1
     5     2     5    1
     6     2     6    1
     7     2    16    1
     8     3     4    1
     9     3     9    1
    10     3    17    1
    11     4     7    1
    12     4    18    1
    13     4    19    1
    14     5    10    1
    15     5    20    1
    16     5    21    1
    17     6     7    1
    18     6    13    2
    19     7    22    1
    20     7    23    1
    21     8    11    2
    22     8    24    1
    23     9    12    1
    24     9    25    1
    25     9    26    1
    26    10    11    1
    27    10    27    1
    28    10    28    1
    29    11    14    1
    30    12    29    1
    31    12    30    1
    32    12    31    1
    33    13    32    1
    34    13    33    1
    35    14    34    1
    36    14    35    1
    37    14    36    1
