@<TRIPOS>MOLECULE
IMPHY002637
 46 48 0 0 0
SMALL
GASTEIGER

@<TRIPOS>ATOM
      1 O           3.7230    0.2340    0.0000 O.3     1  UNL1       -0.4568
      2 O           4.8930   -1.3693    0.0000 O.3     1  UNL1       -0.4608
      3 O           7.8718    2.8947    0.0000 O.3     1  UNL1       -0.3947
      4 O           2.0000    0.6662    0.0000 O.2     1  UNL1       -0.2453
      5 O           6.0922   -2.6191    0.0000 O.2     1  UNL1       -0.2512
      6 C           5.4786    0.3078    0.0000 C.3     1  UNL1        0.0456
      7 C           6.3796    0.7417    0.0000 C.3     1  UNL1       -0.0238
      8 C           4.5777    0.7417    0.0000 C.3     1  UNL1        0.1193
      9 C           5.6146   -0.6769    0.0000 C.3     1  UNL1        0.1120
     10 C           6.6021    1.7166    0.0000 C.3     1  UNL1       -0.0142
     11 C           7.0647    0.0214    0.0000 C.3     1  UNL1       -0.0458
     12 C           4.3551    1.7166    0.0000 C.3     1  UNL1        0.0281
     13 C           6.5929   -0.8536    0.0000 C.3     1  UNL1       -0.0147
     14 C           5.9786    2.4984    0.0000 C.3     1  UNL1       -0.0472
     15 C           4.5777   -0.1261    0.0000 C.3     1  UNL1       -0.0525
     16 C           4.9786    2.4984    0.0000 C.3     1  UNL1       -0.0423
     17 C           7.5770    1.9391    0.0000 C.3     1  UNL1        0.0473
     18 C           3.3648    1.8031    0.0000 C.2     1  UNL1        0.0361
     19 C           2.9749    0.8887    0.0000 C.2     1  UNL1        0.3353
     20 C           2.8504    2.6607    0.0000 C.2     1  UNL1       -0.0883
     21 C           5.1318   -2.3403    0.0000 C.2     1  UNL1        0.3042
     22 C           4.4102   -3.0326    0.0000 C.3     1  UNL1        0.0332
     23 H           7.1993    0.9667    0.0000 H       1  UNL1        0.0312
     24 H           5.2422    1.2716    0.0000 H       1  UNL1        0.0747
     25 H           5.0290   -0.4734    0.0000 H       1  UNL1        0.0740
     26 H           6.8069    2.3018    0.0000 H       1  UNL1        0.0326
     27 H           7.5765   -0.3286    0.0000 H       1  UNL1        0.0269
     28 H           7.4666    0.4935    0.0000 H       1  UNL1        0.0269
     29 H           4.0200    2.4978    0.0000 H       1  UNL1        0.0387
     30 H           6.4192   -1.4488    0.0000 H       1  UNL1        0.0301
     31 H           7.1665   -1.0889    0.0000 H       1  UNL1        0.0301
     32 H           6.5372    2.7674    0.0000 H       1  UNL1        0.0269
     33 H           5.8407    3.1029    0.0000 H       1  UNL1        0.0269
     34 H           4.3086    0.4325    0.0000 H       1  UNL1        0.0237
     35 H           4.0191   -0.3951    0.0000 H       1  UNL1        0.0237
     36 H           4.8467   -0.6847    0.0000 H       1  UNL1        0.0237
     37 H           5.1166    3.1029    0.0000 H       1  UNL1        0.0272
     38 H           4.4200    2.7674    0.0000 H       1  UNL1        0.0272
     39 H           7.6080    1.3199    0.0000 H       1  UNL1        0.0560
     40 H           8.1922    1.8620    0.0000 H       1  UNL1        0.0560
     41 H           3.1514    3.2027    0.0000 H       1  UNL1        0.0540
     42 H           2.2305    2.6504    0.0000 H       1  UNL1        0.0540
     43 H           8.4763    3.0326    0.0000 H       1  UNL1        0.2094
     44 H           3.9810   -2.5853    0.0000 H       1  UNL1        0.0342
     45 H           3.9628   -3.4619    0.0000 H       1  UNL1        0.0342
     46 H           4.8394   -3.4800    0.0000 H       1  UNL1        0.0342
@<TRIPOS>BOND
     1     1     8    1
     2     1    19    1
     3     9     2    1
     4     2    21    1
     5     3    17    1
     6     3    43    1
     7     4    19    2
     8     5    21    2
     9     6     7    1
    10     6     8    1
    11     6     9    1
    12     6    15    1
    13     7    10    1
    14     7    11    1
    15     7    23    1
    16     8    12    1
    17     8    24    1
    18     9    13    1
    19     9    25    1
    20    10    14    1
    21    10    17    1
    22    10    26    1
    23    11    13    1
    24    11    27    1
    25    11    28    1
    26    12    16    1
    27    12    18    1
    28    12    29    1
    29    13    30    1
    30    13    31    1
    31    14    16    1
    32    14    32    1
    33    14    33    1
    34    15    34    1
    35    15    35    1
    36    15    36    1
    37    16    37    1
    38    16    38    1
    39    17    39    1
    40    17    40    1
    41    18    19    1
    42    18    20    2
    43    20    41    1
    44    20    42    1
    45    21    22    1
    46    22    44    1
    47    22    45    1
    48    22    46    1
