@<TRIPOS>MOLECULE
IMPHY004162
 39 40 0 0 0
SMALL
GASTEIGER

@<TRIPOS>ATOM
      1 O           5.3621   -0.3366    0.0000 O.3     1  UNL1       -0.3650
      2 O           2.0000    0.7879    0.0000 O.2     1  UNL1       -0.2876
      3 C           5.6213   -1.3029    0.0000 C.3     1  UNL1        0.0935
      4 C           6.3284   -0.5958    0.0000 C.3     1  UNL1        0.0889
      5 C           6.3284    0.4042    0.0000 C.3     1  UNL1       -0.0153
      6 C           4.6213   -1.3029    0.0000 C.3     1  UNL1       -0.0181
      7 C           5.5640    1.0291    0.0000 C.3     1  UNL1       -0.0140
      8 C           4.9142   -2.0100    0.0000 C.3     1  UNL1       -0.0333
      9 C           3.9142   -2.0100    0.0000 C.3     1  UNL1       -0.0314
     10 C           6.3469    1.6512    0.0000 C.3     1  UNL1       -0.0563
     11 C           5.3697    2.0100    0.0000 C.3     1  UNL1       -0.0563
     12 C           4.6980    0.5291    0.0000 C.2     1  UNL1       -0.0746
     13 C           3.2071   -1.3029    0.0000 C.2     1  UNL1       -0.0774
     14 C           3.8320    1.0291    0.0000 C.2     1  UNL1       -0.0181
     15 C           3.4659   -0.3370    0.0000 C.2     1  UNL1       -0.0077
     16 C           2.9659    0.5291    0.0000 C.2     1  UNL1        0.1813
     17 C           4.4422   -0.5534    0.0000 C.3     1  UNL1       -0.0364
     18 H           7.1137   -0.9211    0.0000 H       1  UNL1        0.0625
     19 H           6.9323    0.2638    0.0000 H       1  UNL1        0.0299
     20 H           6.6019    0.9606    0.0000 H       1  UNL1        0.0299
     21 H           4.7818   -0.7040    0.0000 H       1  UNL1        0.0297
     22 H           4.0844   -0.9929    0.0000 H       1  UNL1        0.0297
     23 H           4.4758   -1.5716    0.0000 H       1  UNL1        0.0258
     24 H           4.4758   -2.4484    0.0000 H       1  UNL1        0.0258
     25 H           5.3526   -2.4484    0.0000 H       1  UNL1        0.0258
     26 H           3.4758   -2.4484    0.0000 H       1  UNL1        0.0308
     27 H           4.3526   -2.4484    0.0000 H       1  UNL1        0.0308
     28 H           6.7326    1.1658    0.0000 H       1  UNL1        0.0238
     29 H           6.8323    2.0370    0.0000 H       1  UNL1        0.0238
     30 H           5.9611    2.1366    0.0000 H       1  UNL1        0.0238
     31 H           5.9779    2.1304    0.0000 H       1  UNL1        0.0238
     32 H           5.2493    2.6182    0.0000 H       1  UNL1        0.0238
     33 H           4.7615    1.8896    0.0000 H       1  UNL1        0.0238
     34 H           4.8057   -0.0815    0.0000 H       1  UNL1        0.0579
     35 H           2.6082   -1.4634    0.0000 H       1  UNL1        0.0576
     36 H           3.8320    1.6491    0.0000 H       1  UNL1        0.0653
     37 H           4.3080   -1.1587    0.0000 H       1  UNL1        0.0279
     38 H           5.0475   -0.6876    0.0000 H       1  UNL1        0.0279
     39 H           4.5764    0.0519    0.0000 H       1  UNL1        0.0279
@<TRIPOS>BOND
     1     1     3    1
     2     1     4    1
     3     2    16    2
     4     3     4    1
     5     3     6    1
     6     3     8    1
     7     4     5    1
     8     4    18    1
     9     5     7    1
    10     5    19    1
    11     5    20    1
    12     6     9    1
    13     6    21    1
    14     6    22    1
    15     7    10    1
    16     7    11    1
    17     7    12    1
    18     8    23    1
    19     8    24    1
    20     8    25    1
    21     9    13    1
    22     9    26    1
    23     9    27    1
    24    10    28    1
    25    10    29    1
    26    10    30    1
    27    11    31    1
    28    11    32    1
    29    11    33    1
    30    12    14    2
    31    12    34    1
    32    13    15    2
    33    13    35    1
    34    14    16    1
    35    14    36    1
    36    15    16    1
    37    15    17    1
    38    17    37    1
    39    17    38    1
    40    17    39    1
