@<TRIPOS>MOLECULE
IMPHY011259
 49 53 0 0 0
SMALL
GASTEIGER

@<TRIPOS>ATOM
      1 O           5.1350   -2.7658    0.0000 O.3     1  UNL1       -0.3313
      2 O           6.8671   -2.7658    0.0000 O.3     1  UNL1       -0.4607
      3 O           5.1350   -5.7658    0.0000 O.3     1  UNL1       -0.3864
      4 O           3.4030   -4.7658    0.0000 O.3     1  UNL1       -0.3865
      5 O           6.8671   -4.7658    0.0000 O.3     1  UNL1       -0.3829
      6 O           2.5369   -3.2658    0.0000 O.3     1  UNL1       -0.3924
      7 O           6.1604    1.9733    0.0000 O.2     1  UNL1       -0.4537
      8 O           8.6230    0.2967    0.0000 O.2     1  UNL1       -0.4214
      9 O           9.4948    1.7934    0.0000 O.2     1  UNL1       -0.2444
     10 O           6.3333    5.5739    0.0000 O.3     1  UNL1       -0.5066
     11 C           5.1350   -4.7658    0.0000 C.3     1  UNL1        0.1152
     12 C           4.2690   -4.2658    0.0000 C.3     1  UNL1        0.1120
     13 C           6.0010   -4.2658    0.0000 C.3     1  UNL1        0.1454
     14 C           4.2690   -3.2658    0.0000 C.3     1  UNL1        0.1140
     15 C           6.0010   -3.2658    0.0000 C.3     1  UNL1        0.2308
     16 C           3.4030   -2.7658    0.0000 C.3     1  UNL1        0.0731
     17 C           6.8671   -1.7658    0.0000 C.ar    1  UNL1        0.1275
     18 C           6.8910    0.3034    0.0000 C.ar    1  UNL1        0.0607
     19 C           7.7671   -1.2415    0.0000 C.ar    1  UNL1        0.0233
     20 C           7.7551   -0.2000    0.0000 C.ar    1  UNL1        0.1461
     21 C           6.8948    1.3034    0.0000 C.ar    1  UNL1        0.1538
     22 C           7.7628    1.8000    0.0000 C.ar    1  UNL1        0.1128
     23 C           5.9670   -1.2415    0.0000 C.ar    1  UNL1       -0.0189
     24 C           5.9790   -0.2000    0.0000 C.ar    1  UNL1       -0.0441
     25 C           7.5573    2.7726    0.0000 C.ar    1  UNL1        0.0351
     26 C           6.5690    2.8795    0.0000 C.ar    1  UNL1        0.1400
     27 C           8.6269    1.2967    0.0000 C.ar    1  UNL1        0.3488
     28 C           8.1813    3.5990    0.0000 C.ar    1  UNL1       -0.0467
     29 C           6.1361    3.8201    0.0000 C.ar    1  UNL1        0.0228
     30 C           7.7703    4.5494    0.0000 C.ar    1  UNL1       -0.0194
     31 C           6.7408    4.6607    0.0000 C.ar    1  UNL1        0.1204
     32 H           5.6720   -5.0758    0.0000 H       1  UNL1        0.0648
     33 H           4.2690   -4.8858    0.0000 H       1  UNL1        0.0647
     34 H           6.5380   -3.9558    0.0000 H       1  UNL1        0.0683
     35 H           4.2690   -2.6458    0.0000 H       1  UNL1        0.0647
     36 H           6.0010   -2.6458    0.0000 H       1  UNL1        0.1084
     37 H           3.8015   -2.2909    0.0000 H       1  UNL1        0.0584
     38 H           3.0044   -2.2909    0.0000 H       1  UNL1        0.0584
     39 H           4.5981   -6.0758    0.0000 H       1  UNL1        0.2100
     40 H           3.4030   -5.3858    0.0000 H       1  UNL1        0.2100
     41 H           6.8671   -5.3858    0.0000 H       1  UNL1        0.2102
     42 H           8.3064   -1.5474    0.0000 H       1  UNL1        0.0691
     43 H           2.0000   -2.9558    0.0000 H       1  UNL1        0.2095
     44 H           5.4277   -1.5474    0.0000 H       1  UNL1        0.0654
     45 H           5.4470    0.1183    0.0000 H       1  UNL1        0.0627
     46 H           8.7969    3.5252    0.0000 H       1  UNL1        0.0626
     47 H           5.5190    3.8797    0.0000 H       1  UNL1        0.0691
     48 H           8.1381    5.0485    0.0000 H       1  UNL1        0.0654
     49 H           6.6973    6.0758    0.0000 H       1  UNL1        0.2921
@<TRIPOS>BOND
     1     1    14    1
     2     1    15    1
     3    15     2    1
     4     2    17    1
     5    11     3    1
     6     3    39    1
     7    12     4    1
     8     4    40    1
     9    13     5    1
    10     5    41    1
    11     6    16    1
    12     6    43    1
    13     7    21   ar
    14     7    26   ar
    15     8    20   ar
    16     8    27   ar
    17     9    27    2
    18    10    31    1
    19    10    49    1
    20    11    12    1
    21    11    13    1
    22    11    32    1
    23    12    14    1
    24    12    33    1
    25    13    15    1
    26    13    34    1
    27    14    16    1
    28    14    35    1
    29    15    36    1
    30    16    37    1
    31    16    38    1
    32    17    19   ar
    33    17    23   ar
    34    18    20   ar
    35    18    21   ar
    36    18    24   ar
    37    19    20   ar
    38    19    42    1
    39    21    22   ar
    40    22    25   ar
    41    22    27   ar
    42    23    24   ar
    43    23    44    1
    44    24    45    1
    45    25    26   ar
    46    25    28   ar
    47    26    29   ar
    48    28    30   ar
    49    28    46    1
    50    29    31   ar
    51    29    47    1
    52    30    31   ar
    53    30    48    1
