@<TRIPOS>MOLECULE
IMPHY007699
 100 104 0 0 0
SMALL
GASTEIGER

@<TRIPOS>ATOM
      1 O          14.8005    0.9528    0.0000 O.3     1  UNL1       -0.3885
      2 O           7.2000   -3.0441    0.0000 O.3     1  UNL1       -0.4577
      3 O           6.3397   -1.5408    0.0000 O.2     1  UNL1       -0.2456
      4 C          12.5931   -0.9918    0.0000 C.3     1  UNL1       -0.0232
      5 C          12.5931    0.0082    0.0000 C.3     1  UNL1       -0.0210
      6 C          11.7270   -1.4918    0.0000 C.3     1  UNL1       -0.0318
      7 C          10.8610   -0.9918    0.0000 C.3     1  UNL1       -0.0320
      8 C           9.9510   -1.4987    0.0000 C.3     1  UNL1       -0.0254
      9 C          13.5393    0.3129    0.0000 C.3     1  UNL1       -0.0065
     10 C           9.9430   -2.5403    0.0000 C.3     1  UNL1       -0.0268
     11 C          11.7270    0.5082    0.0000 C.3     1  UNL1       -0.0465
     12 C          13.5393   -1.2965    0.0000 C.3     1  UNL1       -0.0465
     13 C          10.8610    0.0082    0.0000 C.3     1  UNL1       -0.0489
     14 C          11.7431   -2.5333    0.0000 C.3     1  UNL1       -0.0491
     15 C          14.1229   -0.4918    0.0000 C.3     1  UNL1       -0.0466
     16 C          10.8450   -3.0611    0.0000 C.3     1  UNL1       -0.0488
     17 C           9.0076   -3.0900    0.0000 C.3     1  UNL1        0.0055
     18 C           9.0242   -0.9346    0.0000 C.3     1  UNL1       -0.0437
     19 C          12.5931   -1.9918    0.0000 C.3     1  UNL1       -0.0588
     20 C          12.5931    1.0082    0.0000 C.3     1  UNL1       -0.0587
     21 C          13.8499    1.2634    0.0000 C.3     1  UNL1        0.0669
     22 C           9.9587   -0.4987    0.0000 C.3     1  UNL1       -0.0590
     23 C           8.0679   -2.5475    0.0000 C.3     1  UNL1        0.1087
     24 C           8.0763   -1.4625    0.0000 C.3     1  UNL1       -0.0146
     25 C           8.5109   -3.9579    0.0000 C.3     1  UNL1       -0.0562
     26 C           9.5109   -3.9541    0.0000 C.3     1  UNL1       -0.0562
     27 C          14.1606    2.2140    0.0000 C.3     1  UNL1       -0.0205
     28 C          12.8994    1.5741    0.0000 C.3     1  UNL1       -0.0358
     29 C          15.1391    2.4202    0.0000 C.3     1  UNL1       -0.0319
     30 C           6.3359   -2.5408    0.0000 C.2     1  UNL1        0.3322
     31 C          15.4498    3.3707    0.0000 C.2     1  UNL1       -0.0852
     32 C           5.4679   -3.0375    0.0000 C.2     1  UNL1        0.0231
     33 C          16.4283    3.5769    0.0000 C.2     1  UNL1       -0.0796
     34 C           4.6038   -2.5341    0.0000 C.2     1  UNL1       -0.0478
     35 C          16.7389    4.5274    0.0000 C.3     1  UNL1       -0.0440
     36 C          17.0961    2.8326    0.0000 C.3     1  UNL1       -0.0440
     37 C           3.7359   -3.0308    0.0000 C.ar    1  UNL1       -0.0248
     38 C           2.8718   -2.5275    0.0000 C.ar    1  UNL1       -0.0546
     39 C           3.7320   -4.0308    0.0000 C.ar    1  UNL1       -0.0546
     40 C           2.0038   -3.0241    0.0000 C.ar    1  UNL1       -0.0612
     41 C           2.8641   -4.5274    0.0000 C.ar    1  UNL1       -0.0612
     42 C           2.0000   -4.0241    0.0000 C.ar    1  UNL1       -0.0617
     43 H          12.4664   -1.9111    0.0000 H       1  UNL1        0.0309
     44 H          11.5971   -0.5668    0.0000 H       1  UNL1        0.0309
     45 H          14.3790    0.4448    0.0000 H       1  UNL1        0.0334
     46 H           9.9462   -3.3902    0.0000 H       1  UNL1        0.0312
     47 H          12.1256    0.9831    0.0000 H       1  UNL1        0.0271
     48 H          11.3285    0.9831    0.0000 H       1  UNL1        0.0271
     49 H          13.2882   -1.8634    0.0000 H       1  UNL1        0.0271
     50 H          14.0767   -1.6058    0.0000 H       1  UNL1        0.0271
     51 H          10.6489    0.5908    0.0000 H       1  UNL1        0.0268
     52 H          10.2504   -0.0995    0.0000 H       1  UNL1        0.0268
     53 H          11.9611   -3.1137    0.0000 H       1  UNL1        0.0268
     54 H          12.3522   -2.4178    0.0000 H       1  UNL1        0.0268
     55 H          14.5838   -0.9065    0.0000 H       1  UNL1        0.0269
     56 H          14.5838   -0.0771    0.0000 H       1  UNL1        0.0269
     57 H          10.4477   -3.5370    0.0000 H       1  UNL1        0.0268
     58 H          11.2460   -3.5340    0.0000 H       1  UNL1        0.0268
     59 H           9.4324   -0.4679    0.0000 H       1  UNL1        0.0272
     60 H           8.6342   -0.4525    0.0000 H       1  UNL1        0.0272
     61 H          11.9731   -1.9918    0.0000 H       1  UNL1        0.0235
     62 H          12.5931   -2.6118    0.0000 H       1  UNL1        0.0235
     63 H          13.2131   -1.9918    0.0000 H       1  UNL1        0.0235
     64 H          13.2131    1.0082    0.0000 H       1  UNL1        0.0235
     65 H          12.5931    1.6282    0.0000 H       1  UNL1        0.0235
     66 H          11.9731    1.0082    0.0000 H       1  UNL1        0.0235
     67 H          10.5787   -0.5035    0.0000 H       1  UNL1        0.0235
     68 H           9.9635    0.1213    0.0000 H       1  UNL1        0.0235
     69 H           9.3387   -0.4939    0.0000 H       1  UNL1        0.0235
     70 H           8.0667   -3.1675    0.0000 H       1  UNL1        0.0739
     71 H           7.8717   -0.8772    0.0000 H       1  UNL1        0.0301
     72 H           7.4646   -1.5639    0.0000 H       1  UNL1        0.0301
     73 H           8.9752   -4.2661    0.0000 H       1  UNL1        0.0236
     74 H           9.8230   -4.4898    0.0000 H       1  UNL1        0.0236
     75 H           7.9728   -3.6500    0.0000 H       1  UNL1        0.0236
     76 H           8.2030   -4.4960    0.0000 H       1  UNL1        0.0236
     77 H           9.0490   -4.2659    0.0000 H       1  UNL1        0.0236
     78 H          10.0466   -3.6420    0.0000 H       1  UNL1        0.0236
     79 H          14.1400    2.8336    0.0000 H       1  UNL1        0.0296
     80 H          13.5468    2.3013    0.0000 H       1  UNL1        0.0296
     81 H          13.0920    2.1634    0.0000 H       1  UNL1        0.0257
     82 H          12.3101    1.7667    0.0000 H       1  UNL1        0.0257
     83 H          12.7068    0.9848    0.0000 H       1  UNL1        0.0257
     84 H          15.2619    1.3668    0.0000 H       1  UNL1        0.2102
     85 H          15.1597    1.8005    0.0000 H       1  UNL1        0.0308
     86 H          15.7529    2.3328    0.0000 H       1  UNL1        0.0308
     87 H          15.0357    3.8322    0.0000 H       1  UNL1        0.0571
     88 H           5.4655   -3.6575    0.0000 H       1  UNL1        0.0689
     89 H           4.6062   -1.9141    0.0000 H       1  UNL1        0.0626
     90 H          16.6346    2.4186    0.0000 H       1  UNL1        0.0274
     91 H          17.5102    2.3712    0.0000 H       1  UNL1        0.0274
     92 H          17.5576    3.2467    0.0000 H       1  UNL1        0.0274
     93 H          17.3283    4.3348    0.0000 H       1  UNL1        0.0274
     94 H          16.9315    5.1168    0.0000 H       1  UNL1        0.0274
     95 H          16.1496    4.7200    0.0000 H       1  UNL1        0.0274
     96 H           2.8742   -1.9075    0.0000 H       1  UNL1        0.0623
     97 H           4.2678   -4.3428    0.0000 H       1  UNL1        0.0623
     98 H           1.4681   -2.7120    0.0000 H       1  UNL1        0.0618
     99 H           2.8617   -5.1474    0.0000 H       1  UNL1        0.0618
    100 H           1.4619   -4.3320    0.0000 H       1  UNL1        0.0618
@<TRIPOS>BOND
     1    21     1    1
     2     1    84    1
     3    23     2    1
     4     2    30    1
     5     3    30    2
     6     4     5    1
     7     4     6    1
     8     4    12    1
     9     4    19    1
    10     5     9    1
    11     5    11    1
    12     5    20    1
    13     6     7    1
    14     6    14    1
    15     6    43    1
    16     7     8    1
    17     7    13    1
    18     7    44    1
    19     8    10    1
    20     8    18    1
    21     8    22    1
    22     9    15    1
    23     9    21    1
    24     9    45    1
    25    10    16    1
    26    10    17    1
    27    10    46    1
    28    11    13    1
    29    11    47    1
    30    11    48    1
    31    12    15    1
    32    12    49    1
    33    12    50    1
    34    13    51    1
    35    13    52    1
    36    14    16    1
    37    14    53    1
    38    14    54    1
    39    15    55    1
    40    15    56    1
    41    16    57    1
    42    16    58    1
    43    17    23    1
    44    17    25    1
    45    17    26    1
    46    18    24    1
    47    18    59    1
    48    18    60    1
    49    19    61    1
    50    19    62    1
    51    19    63    1
    52    20    64    1
    53    20    65    1
    54    20    66    1
    55    21    27    1
    56    21    28    1
    57    22    67    1
    58    22    68    1
    59    22    69    1
    60    23    24    1
    61    23    70    1
    62    24    71    1
    63    24    72    1
    64    25    75    1
    65    25    76    1
    66    25    77    1
    67    26    73    1
    68    26    74    1
    69    26    78    1
    70    27    29    1
    71    27    79    1
    72    27    80    1
    73    28    81    1
    74    28    82    1
    75    28    83    1
    76    29    31    1
    77    29    85    1
    78    29    86    1
    79    30    32    1
    80    31    33    2
    81    31    87    1
    82    32    34    2
    83    32    88    1
    84    33    35    1
    85    33    36    1
    86    34    37    1
    87    34    89    1
    88    35    93    1
    89    35    94    1
    90    35    95    1
    91    36    90    1
    92    36    91    1
    93    36    92    1
    94    37    38   ar
    95    37    39   ar
    96    38    40   ar
    97    38    96    1
    98    39    41   ar
    99    39    97    1
   100    40    42   ar
   101    40    98    1
   102    41    42   ar
   103    41    99    1
   104    42   100    1
