@<TRIPOS>MOLECULE
IMPHY008577
 80 85 0 0 0
SMALL
GASTEIGER

@<TRIPOS>ATOM
      1 O           9.4780    3.1287    0.0000 O.3     1  UNL1       -0.3874
      2 O           6.8671   -3.0390    0.0000 O.3     1  UNL1       -0.3454
      3 O           5.7698    6.3490    0.0000 O.3     1  UNL1       -0.4568
      4 O           5.1350   -3.0390    0.0000 O.3     1  UNL1       -0.3405
      5 O           6.8671   -5.0390    0.0000 O.3     1  UNL1       -0.3841
      6 O           4.0495    5.8841    0.0000 O.2     1  UNL1       -0.2456
      7 O           5.1350   -6.0390    0.0000 O.3     1  UNL1       -0.3864
      8 O           3.4030   -5.0390    0.0000 O.3     1  UNL1       -0.3865
      9 O           2.5369   -3.5390    0.0000 O.3     1  UNL1       -0.3924
     10 C           6.9040    1.1579    0.0000 C.3     1  UNL1       -0.0321
     11 C           6.8920    0.1163    0.0000 C.3     1  UNL1       -0.0260
     12 C           7.7681    1.6612    0.0000 C.3     1  UNL1       -0.0314
     13 C           7.7643    2.6612    0.0000 C.3     1  UNL1        0.0011
     14 C           7.7920   -0.4079    0.0000 C.3     1  UNL1       -0.0330
     15 C           6.8963    3.1579    0.0000 C.3     1  UNL1       -0.0012
     16 C           6.0361    1.6546    0.0000 C.3     1  UNL1       -0.0486
     17 C           8.6801    1.1579    0.0000 C.3     1  UNL1       -0.0493
     18 C           8.6921    0.1163    0.0000 C.3     1  UNL1       -0.0494
     19 C           6.0322    2.6546    0.0000 C.3     1  UNL1       -0.0430
     20 C           5.9421   -0.4079    0.0000 C.3     1  UNL1       -0.0448
     21 C           8.4987    3.3312    0.0000 C.3     1  UNL1        0.0778
     22 C           7.8046   -1.4929    0.0000 C.3     1  UNL1       -0.0232
     23 C           6.0279    0.6197    0.0000 C.3     1  UNL1       -0.0590
     24 C           7.1018    4.1305    0.0000 C.2     1  UNL1       -0.0360
     25 C           5.9295   -1.4929    0.0000 C.3     1  UNL1       -0.0260
     26 C           6.8671   -2.0390    0.0000 C.3     1  UNL1        0.0621
     27 C           6.0284    3.6546    0.0000 C.3     1  UNL1       -0.0552
     28 C           8.0901    4.2374    0.0000 C.2     1  UNL1       -0.0515
     29 C           6.4311    4.8722    0.0000 C.2     1  UNL1       -0.0001
     30 C           6.6369    5.8508    0.0000 C.3     1  UNL1        0.1183
     31 C           6.0010   -3.5390    0.0000 C.3     1  UNL1        0.1882
     32 C           5.4368    4.7656    0.0000 C.2     1  UNL1        0.0292
     33 C           6.0010   -4.5390    0.0000 C.3     1  UNL1        0.1341
     34 C           5.0281    5.6783    0.0000 C.2     1  UNL1        0.3326
     35 C           5.1350   -5.0390    0.0000 C.3     1  UNL1        0.1141
     36 C           4.2690   -3.5390    0.0000 C.3     1  UNL1        0.1130
     37 C           4.2690   -4.5390    0.0000 C.3     1  UNL1        0.1119
     38 C           3.4030   -3.0390    0.0000 C.3     1  UNL1        0.0730
     39 H           7.6385    0.7301    0.0000 H       1  UNL1        0.0309
     40 H           8.4993    2.0947    0.0000 H       1  UNL1        0.0307
     41 H           8.3320    2.4120    0.0000 H       1  UNL1        0.0340
     42 H           8.5314   -0.8273    0.0000 H       1  UNL1        0.0307
     43 H           5.4251    1.7599    0.0000 H       1  UNL1        0.0268
     44 H           5.8263    1.0711    0.0000 H       1  UNL1        0.0268
     45 H           9.2921    1.0589    0.0000 H       1  UNL1        0.0268
     46 H           8.8824    1.7440    0.0000 H       1  UNL1        0.0268
     47 H           8.9079   -0.4649    0.0000 H       1  UNL1        0.0268
     48 H           9.3017    0.2295    0.0000 H       1  UNL1        0.0268
     49 H           5.8179    3.2364    0.0000 H       1  UNL1        0.0274
     50 H           5.4221    2.5446    0.0000 H       1  UNL1        0.0274
     51 H           5.7398    0.1781    0.0000 H       1  UNL1        0.0271
     52 H           5.3300   -0.5070    0.0000 H       1  UNL1        0.0271
     53 H           8.6628    2.7333    0.0000 H       1  UNL1        0.0641
     54 H           8.0204   -2.0741    0.0000 H       1  UNL1        0.0293
     55 H           8.4142   -1.3797    0.0000 H       1  UNL1        0.0293
     56 H           6.3400    1.1554    0.0000 H       1  UNL1        0.0235
     57 H           5.4922    0.9318    0.0000 H       1  UNL1        0.0235
     58 H           5.7158    0.0839    0.0000 H       1  UNL1        0.0235
     59 H           5.3199   -1.3797    0.0000 H       1  UNL1        0.0290
     60 H           5.7137   -2.0741    0.0000 H       1  UNL1        0.0290
     61 H           7.4046   -2.3479    0.0000 H       1  UNL1        0.0597
     62 H           6.3363    4.1927    0.0000 H       1  UNL1        0.0238
     63 H           5.4902    3.9625    0.0000 H       1  UNL1        0.0238
     64 H           5.7204    3.1164    0.0000 H       1  UNL1        0.0238
     65 H           8.3980    4.7755    0.0000 H       1  UNL1        0.0601
     66 H           9.8903    3.5918    0.0000 H       1  UNL1        0.2102
     67 H           7.2270    5.6605    0.0000 H       1  UNL1        0.0749
     68 H           6.8879    6.4178    0.0000 H       1  UNL1        0.0749
     69 H           6.0010   -2.9190    0.0000 H       1  UNL1        0.0937
     70 H           5.1279    4.2280    0.0000 H       1  UNL1        0.0693
     71 H           6.0010   -5.1590    0.0000 H       1  UNL1        0.0671
     72 H           4.5981   -5.3490    0.0000 H       1  UNL1        0.0648
     73 H           4.2690   -2.9190    0.0000 H       1  UNL1        0.0647
     74 H           3.7320   -4.2290    0.0000 H       1  UNL1        0.0647
     75 H           6.8671   -5.6590    0.0000 H       1  UNL1        0.2101
     76 H           3.8015   -2.5640    0.0000 H       1  UNL1        0.0584
     77 H           3.0044   -2.5640    0.0000 H       1  UNL1        0.0584
     78 H           4.5981   -6.3490    0.0000 H       1  UNL1        0.2100
     79 H           3.4030   -5.6590    0.0000 H       1  UNL1        0.2100
     80 H           2.0000   -3.2290    0.0000 H       1  UNL1        0.2095
@<TRIPOS>BOND
     1     1    21    1
     2     1    66    1
     3    26     2    1
     4     2    31    1
     5     3    30    1
     6     3    34    1
     7     4    31    1
     8     4    36    1
     9    33     5    1
    10     5    75    1
    11     6    34    2
    12    35     7    1
    13     7    78    1
    14    37     8    1
    15     8    79    1
    16     9    38    1
    17     9    80    1
    18    10    11    1
    19    10    12    1
    20    10    16    1
    21    10    39    1
    22    11    14    1
    23    11    20    1
    24    11    23    1
    25    12    13    1
    26    12    17    1
    27    12    40    1
    28    13    15    1
    29    13    21    1
    30    13    41    1
    31    14    18    1
    32    14    22    1
    33    14    42    1
    34    15    19    1
    35    15    24    1
    36    15    27    1
    37    16    19    1
    38    16    43    1
    39    16    44    1
    40    17    18    1
    41    17    45    1
    42    17    46    1
    43    18    47    1
    44    18    48    1
    45    19    49    1
    46    19    50    1
    47    20    25    1
    48    20    51    1
    49    20    52    1
    50    21    28    1
    51    21    53    1
    52    22    26    1
    53    22    54    1
    54    22    55    1
    55    23    56    1
    56    23    57    1
    57    23    58    1
    58    24    28    2
    59    24    29    1
    60    25    26    1
    61    25    59    1
    62    25    60    1
    63    26    61    1
    64    27    62    1
    65    27    63    1
    66    27    64    1
    67    28    65    1
    68    29    30    1
    69    29    32    2
    70    30    67    1
    71    30    68    1
    72    31    33    1
    73    31    69    1
    74    32    34    1
    75    32    70    1
    76    33    35    1
    77    33    71    1
    78    35    37    1
    79    35    72    1
    80    36    37    1
    81    36    38    1
    82    36    73    1
    83    37    74    1
    84    38    76    1
    85    38    77    1
