@<TRIPOS>MOLECULE
IMPHY002376
 22 24 0 0 0
SMALL
GASTEIGER

@<TRIPOS>ATOM
      1 O        2478.9000 2436.9600    0.0000 O.3     1  UNL1       -0.4520
      2 C        2478.9000 2396.9500    0.0000 C.2     1  UNL1        0.3174
      3 C        2444.2600 2377.0000    0.0000 C.3     1  UNL1        0.1212
      4 O        2513.5500 2377.0000    0.0000 O.2     1  UNL1       -0.2501
      5 C        2513.1500 2457.6100    0.0000 C.3     1  UNL1        0.1759
      6 C        2498.8600 2494.7400    0.0000 C.3     1  UNL1        0.0951
      7 C        2498.8600 2534.7500    0.0000 C.3     1  UNL1        0.1941
      8 C        2533.2100 2554.7000    0.0000 C.2     1  UNL1        0.0079
      9 C        2567.4600 2534.7500    0.0000 C.2     1  UNL1       -0.0000
     10 C        2567.4600 2494.7400    0.0000 C.3     1  UNL1        0.1484
     11 C        2553.1600 2457.6100    0.0000 C.3     1  UNL1        0.0784
     12 C        2595.7500 2466.4500    0.0000 C.3     1  UNL1        0.0376
     13 O        2604.2900 2510.3200    0.0000 O.3     1  UNL1       -0.2211
     14 C        2601.8100 2554.7000    0.0000 C.2     1  UNL1       -0.0239
     15 C        2601.8100 2594.7100    0.0000 C.3     1  UNL1        0.0475
     16 C        2533.2100 2594.7100    0.0000 C.2     1  UNL1       -0.0404
     17 C        2504.9100 2623.0000    0.0000 C.3     1  UNL1        0.0265
     18 O        2464.6100 2554.7000    0.0000 O.3     1  UNL1       -0.4476
     19 C        2430.3600 2534.7500    0.0000 C.2     1  UNL1        0.3169
     20 C        2430.3600 2494.7400    0.0000 C.3     1  UNL1        0.1064
     21 C        2402.0700 2466.4500    0.0000 C.3     1  UNL1        0.0119
     22 O        2395.7100 2554.7000    0.0000 O.2     1  UNL1       -0.2501
@<TRIPOS>BOND
     1     1     2    1
     2     2     3    1
     3     2     4    2
     4     5     1    1
     5     5    11    1
     6     6     5    1
     7     6     7    1
     8     6    20    1
     9     7     8    1
    10     7    18    1
    11     8     9    1
    12     8    16    2
    13     9    14    2
    14    10     9    1
    15    10    12    1
    16    10    13    1
    17    11    10    1
    18    14    15    1
    19    16    15    1
    20    16    17    1
    21    18    19    1
    22    19    22    2
    23    20    19    1
    24    20    21    1
