@<TRIPOS>MOLECULE
IMPHY007644
 47 49 0 0 0
SMALL
GASTEIGER

@<TRIPOS>ATOM
      1 O           6.0682   -0.8450    0.0000 O.2     1  UNL1       -0.4541
      2 O           6.0682    2.1550    0.0000 O.2     1  UNL1       -0.2866
      3 O           4.3198    2.1896    0.0000 O.3     1  UNL1       -0.5058
      4 O           2.5381   -0.8692    0.0000 O.3     1  UNL1       -0.5065
      5 O          10.3984   -0.3450    0.0000 O.3     1  UNL1       -0.5032
      6 O           8.6663   -3.3450    0.0000 O.3     1  UNL1       -0.5032
      7 O          10.3984   -2.3450    0.0000 O.3     1  UNL1       -0.5009
      8 C           7.8003    2.1550    0.0000 C.3     1  UNL1       -0.0465
      9 C           8.6663    2.6550    0.0000 C.3     1  UNL1       -0.0464
     10 C           7.8003    1.1550    0.0000 C.3     1  UNL1       -0.0203
     11 C           6.9343    0.6550    0.0000 C.ar    1  UNL1        0.0429
     12 C           6.9343   -0.3450    0.0000 C.ar    1  UNL1        0.1426
     13 C           8.6663    3.6550    0.0000 C.3     1  UNL1       -0.0627
     14 C           9.5323    2.1550    0.0000 C.3     1  UNL1       -0.0627
     15 C           6.0682    1.1550    0.0000 C.ar    1  UNL1        0.1998
     16 C           5.2022    0.6550    0.0000 C.ar    1  UNL1        0.1057
     17 C           5.2022   -0.3450    0.0000 C.ar    1  UNL1        0.1463
     18 C           7.8003   -0.8450    0.0000 C.ar    1  UNL1        0.0248
     19 C           4.3083    1.1897    0.0000 C.ar    1  UNL1        0.1347
     20 C           4.3083   -0.8797    0.0000 C.ar    1  UNL1        0.0231
     21 C           7.8003   -1.8450    0.0000 C.ar    1  UNL1       -0.0056
     22 C           8.6663   -0.3450    0.0000 C.ar    1  UNL1       -0.0056
     23 C           3.4022    0.6758    0.0000 C.ar    1  UNL1        0.0223
     24 C           3.4022   -0.3658    0.0000 C.ar    1  UNL1        0.1239
     25 C           9.5323   -0.8450    0.0000 C.ar    1  UNL1        0.1626
     26 C           8.6663   -2.3450    0.0000 C.ar    1  UNL1        0.1626
     27 C           9.5323   -1.8450    0.0000 C.ar    1  UNL1        0.2006
     28 H           7.5882    2.7376    0.0000 H       1  UNL1        0.0271
     29 H           7.1897    2.0473    0.0000 H       1  UNL1        0.0271
     30 H           8.1294    2.9650    0.0000 H       1  UNL1        0.0296
     31 H           8.0124    0.5724    0.0000 H       1  UNL1        0.0316
     32 H           8.4109    1.2627    0.0000 H       1  UNL1        0.0316
     33 H           9.2863    3.6550    0.0000 H       1  UNL1        0.0232
     34 H           9.2224    1.6181    0.0000 H       1  UNL1        0.0232
     35 H          10.0693    1.8450    0.0000 H       1  UNL1        0.0232
     36 H           9.8424    2.6919    0.0000 H       1  UNL1        0.0232
     37 H           8.6663    4.2750    0.0000 H       1  UNL1        0.0232
     38 H           8.0463    3.6550    0.0000 H       1  UNL1        0.0232
     39 H           4.3154   -1.4996    0.0000 H       1  UNL1        0.0691
     40 H           7.2634   -2.1550    0.0000 H       1  UNL1        0.0662
     41 H           8.6663    0.2750    0.0000 H       1  UNL1        0.0662
     42 H           2.8665    0.9879    0.0000 H       1  UNL1        0.0691
     43 H           3.7865    2.5058    0.0000 H       1  UNL1        0.2922
     44 H           2.0000   -0.5612    0.0000 H       1  UNL1        0.2921
     45 H          10.9353   -0.6550    0.0000 H       1  UNL1        0.2923
     46 H           8.1294   -3.6550    0.0000 H       1  UNL1        0.2923
     47 H          10.3984   -2.9650    0.0000 H       1  UNL1        0.2924
@<TRIPOS>BOND
     1     1    12   ar
     2     1    17   ar
     3     2    15    2
     4     3    19    1
     5     3    43    1
     6     4    24    1
     7     4    44    1
     8     5    25    1
     9     5    45    1
    10     6    26    1
    11     6    46    1
    12     7    27    1
    13     7    47    1
    14     8     9    1
    15     8    10    1
    16     8    28    1
    17     8    29    1
    18     9    13    1
    19     9    14    1
    20     9    30    1
    21    10    11    1
    22    10    31    1
    23    10    32    1
    24    11    12   ar
    25    11    15   ar
    26    12    18    1
    27    13    33    1
    28    13    37    1
    29    13    38    1
    30    14    34    1
    31    14    35    1
    32    14    36    1
    33    15    16   ar
    34    16    17   ar
    35    16    19   ar
    36    17    20   ar
    37    18    21   ar
    38    18    22   ar
    39    19    23   ar
    40    20    24   ar
    41    20    39    1
    42    21    26   ar
    43    21    40    1
    44    22    25   ar
    45    22    41    1
    46    23    24   ar
    47    23    42    1
    48    25    27   ar
    49    26    27   ar
