@<TRIPOS>MOLECULE
IMPHY002221
 76 80 0 0 0
SMALL
GASTEIGER

@<TRIPOS>ATOM
      1 O          11.1246    2.8304    0.0000 O.2     1  UNL1       -0.2971
      2 C           5.7847   -0.3139    0.0000 C.3     1  UNL1       -0.0194
      3 C           6.6507   -0.8139    0.0000 C.3     1  UNL1       -0.0196
      4 C           4.8746   -0.8208    0.0000 C.3     1  UNL1       -0.0289
      5 C           4.8666   -1.8624    0.0000 C.3     1  UNL1       -0.0287
      6 C           7.5167   -0.3139    0.0000 C.3     1  UNL1       -0.0137
      7 C           6.6667   -1.8554    0.0000 C.3     1  UNL1       -0.0461
      8 C           5.7687   -2.3832    0.0000 C.3     1  UNL1       -0.0468
      9 C           5.7847    0.6861    0.0000 C.3     1  UNL1       -0.0283
     10 C           3.9478   -0.2567    0.0000 C.3     1  UNL1       -0.0440
     11 C           7.5167    0.6861    0.0000 C.2     1  UNL1       -0.0662
     12 C           3.9312   -2.4121    0.0000 C.3     1  UNL1       -0.0469
     13 C           8.4106    1.2207    0.0000 C.3     1  UNL1       -0.0132
     14 C           2.9999   -0.7846    0.0000 C.3     1  UNL1       -0.0346
     15 C           9.3167    0.7069    0.0000 C.3     1  UNL1       -0.0163
     16 C           8.4106   -0.8486    0.0000 C.3     1  UNL1       -0.0455
     17 C           4.9186    0.1861    0.0000 C.3     1  UNL1       -0.0585
     18 C           7.5167   -1.3139    0.0000 C.3     1  UNL1       -0.0585
     19 C           2.9916   -1.8696    0.0000 C.3     1  UNL1       -0.0474
     20 C           6.6507    1.1861    0.0000 C.2     1  UNL1       -0.0837
     21 C           9.3167   -0.3348    0.0000 C.3     1  UNL1       -0.0459
     22 C           4.8589   -2.8624    0.0000 C.3     1  UNL1       -0.0593
     23 C          10.2605    1.2421    0.0000 C.3     1  UNL1        0.0206
     24 C           8.3856    2.3054    0.0000 C.3     1  UNL1       -0.0393
     25 C           2.0000   -0.7731    0.0000 C.3     1  UNL1       -0.0598
     26 C           2.5100    0.0871    0.0000 C.3     1  UNL1       -0.0598
     27 C          10.1866    0.2136    0.0000 C.3     1  UNL1       -0.0584
     28 C           9.3167    2.8624    0.0000 C.3     1  UNL1        0.0067
     29 C          10.2605    2.3271    0.0000 C.2     1  UNL1        0.1367
     30 C          11.1246    0.7388    0.0000 C.3     1  UNL1       -0.0552
     31 H           5.6058   -1.2543    0.0000 H       1  UNL1        0.0312
     32 H           8.2561    0.1054    0.0000 H       1  UNL1        0.0351
     33 H           6.8848   -2.4358    0.0000 H       1  UNL1        0.0271
     34 H           7.2759   -1.7399    0.0000 H       1  UNL1        0.0271
     35 H           5.3714   -2.8592    0.0000 H       1  UNL1        0.0271
     36 H           6.1697   -2.8561    0.0000 H       1  UNL1        0.0271
     37 H           5.5726    1.2687    0.0000 H       1  UNL1        0.0313
     38 H           5.1741    0.5784    0.0000 H       1  UNL1        0.0313
     39 H           4.3560    0.2100    0.0000 H       1  UNL1        0.0273
     40 H           3.5579    0.2253    0.0000 H       1  UNL1        0.0273
     41 H           3.5339   -2.8881    0.0000 H       1  UNL1        0.0271
     42 H           4.3322   -2.8850    0.0000 H       1  UNL1        0.0271
     43 H           9.1401    1.6570    0.0000 H       1  UNL1        0.0351
     44 H           8.0060   -1.3184    0.0000 H       1  UNL1        0.0271
     45 H           8.8043   -1.3276    0.0000 H       1  UNL1        0.0271
     46 H           5.2286    0.7230    0.0000 H       1  UNL1        0.0235
     47 H           4.3817    0.4961    0.0000 H       1  UNL1        0.0235
     48 H           4.6086   -0.3509    0.0000 H       1  UNL1        0.0235
     49 H           7.2067   -1.8509    0.0000 H       1  UNL1        0.0235
     50 H           8.0536   -1.6239    0.0000 H       1  UNL1        0.0235
     51 H           7.8267   -0.7770    0.0000 H       1  UNL1        0.0235
     52 H           2.3816   -1.7588    0.0000 H       1  UNL1        0.0271
     53 H           2.7780   -2.4517    0.0000 H       1  UNL1        0.0271
     54 H           6.6507    1.8061    0.0000 H       1  UNL1        0.0572
     55 H           9.5258   -0.9184    0.0000 H       1  UNL1        0.0271
     56 H           9.9276   -0.2287    0.0000 H       1  UNL1        0.0271
     57 H           4.2389   -2.8576    0.0000 H       1  UNL1        0.0235
     58 H           4.8541   -3.4823    0.0000 H       1  UNL1        0.0235
     59 H           5.4789   -2.8671    0.0000 H       1  UNL1        0.0235
     60 H          10.7980    1.5511    0.0000 H       1  UNL1        0.0380
     61 H           8.1631    2.8841    0.0000 H       1  UNL1        0.0275
     62 H           7.7773    2.1852    0.0000 H       1  UNL1        0.0275
     63 H           3.0505    0.3909    0.0000 H       1  UNL1        0.0235
     64 H           2.2062    0.6276    0.0000 H       1  UNL1        0.0235
     65 H           1.9695   -0.2167    0.0000 H       1  UNL1        0.0235
     66 H           2.0072   -0.1531    0.0000 H       1  UNL1        0.0235
     67 H           1.3800   -0.7659    0.0000 H       1  UNL1        0.0235
     68 H           1.9928   -1.3930    0.0000 H       1  UNL1        0.0235
     69 H           9.8807   -0.3257    0.0000 H       1  UNL1        0.0235
     70 H          10.7259   -0.0923    0.0000 H       1  UNL1        0.0235
     71 H          10.4924    0.7529    0.0000 H       1  UNL1        0.0235
     72 H           9.7103    3.3414    0.0000 H       1  UNL1        0.0342
     73 H           8.9121    3.3321    0.0000 H       1  UNL1        0.0342
     74 H          10.8125    0.2030    0.0000 H       1  UNL1        0.0237
     75 H          11.6603    0.4267    0.0000 H       1  UNL1        0.0237
     76 H          11.4367    1.2745    0.0000 H       1  UNL1        0.0237
@<TRIPOS>BOND
     1     1    29    2
     2     2     3    1
     3     2     4    1
     4     2     9    1
     5     2    17    1
     6     3     6    1
     7     3     7    1
     8     3    18    1
     9     4     5    1
    10     4    10    1
    11     4    31    1
    12     5     8    1
    13     5    12    1
    14     5    22    1
    15     6    11    1
    16     6    16    1
    17     6    32    1
    18     7     8    1
    19     7    33    1
    20     7    34    1
    21     8    35    1
    22     8    36    1
    23     9    20    1
    24     9    37    1
    25     9    38    1
    26    10    14    1
    27    10    39    1
    28    10    40    1
    29    11    13    1
    30    11    20    2
    31    12    19    1
    32    12    41    1
    33    12    42    1
    34    13    15    1
    35    13    24    1
    36    13    43    1
    37    14    19    1
    38    14    25    1
    39    14    26    1
    40    15    21    1
    41    15    23    1
    42    15    27    1
    43    16    21    1
    44    16    44    1
    45    16    45    1
    46    17    46    1
    47    17    47    1
    48    17    48    1
    49    18    49    1
    50    18    50    1
    51    18    51    1
    52    19    52    1
    53    19    53    1
    54    20    54    1
    55    21    55    1
    56    21    56    1
    57    22    57    1
    58    22    58    1
    59    22    59    1
    60    23    29    1
    61    23    30    1
    62    23    60    1
    63    24    28    1
    64    24    61    1
    65    24    62    1
    66    25    66    1
    67    25    67    1
    68    25    68    1
    69    26    63    1
    70    26    64    1
    71    26    65    1
    72    27    69    1
    73    27    70    1
    74    27    71    1
    75    28    29    1
    76    28    72    1
    77    28    73    1
    78    30    74    1
    79    30    75    1
    80    30    76    1
