@<TRIPOS>MOLECULE
IMPHY005035
 33 35 0 0 0
SMALL
GASTEIGER

@<TRIPOS>ATOM
      1 O           6.0290   -2.0519    0.0000 O.3     1  UNL1       -0.4872
      2 O           2.5369   -2.0172    0.0000 O.3     1  UNL1       -0.4913
      3 O           2.5369   -0.0172    0.0000 O.3     1  UNL1       -0.5033
      4 C           5.1350   -0.5172    0.0000 C.ar    1  UNL1        0.0279
      5 C           6.0290    0.0174    0.0000 C.2     1  UNL1       -0.0079
      6 C           5.1350   -1.5172    0.0000 C.ar    1  UNL1        0.1323
      7 C           6.9350   -0.4964    0.0000 C.2     1  UNL1       -0.0387
      8 C           6.0174    1.0174    0.0000 C.ar    1  UNL1       -0.0174
      9 C           6.9350   -1.5380    0.0000 C.3     1  UNL1        0.1087
     10 C           4.2690   -0.0172    0.0000 C.ar    1  UNL1       -0.0053
     11 C           4.2690   -2.0172    0.0000 C.ar    1  UNL1        0.0260
     12 C           3.4030   -0.5172    0.0000 C.ar    1  UNL1        0.1593
     13 C           3.4030   -1.5172    0.0000 C.ar    1  UNL1        0.1648
     14 C           6.8776    1.5273    0.0000 C.ar    1  UNL1       -0.0540
     15 C           5.1456    1.5073    0.0000 C.ar    1  UNL1       -0.0540
     16 C           6.8660    2.5273    0.0000 C.ar    1  UNL1       -0.0612
     17 C           5.1341    2.5072    0.0000 C.ar    1  UNL1       -0.0612
     18 C           5.9943    3.0172    0.0000 C.ar    1  UNL1       -0.0617
     19 C           2.5369   -3.0172    0.0000 C.3     1  UNL1        0.0790
     20 H           7.4708   -0.1843    0.0000 H       1  UNL1        0.0612
     21 H           7.1441   -2.1217    0.0000 H       1  UNL1        0.0742
     22 H           7.5459   -1.4320    0.0000 H       1  UNL1        0.0742
     23 H           4.2690    0.6028    0.0000 H       1  UNL1        0.0662
     24 H           4.2690   -2.6372    0.0000 H       1  UNL1        0.0692
     25 H           7.4181    1.2236    0.0000 H       1  UNL1        0.0624
     26 H           4.6123    1.1911    0.0000 H       1  UNL1        0.0624
     27 H           7.3993    2.8435    0.0000 H       1  UNL1        0.0618
     28 H           4.5936    2.8110    0.0000 H       1  UNL1        0.0618
     29 H           5.9871    3.6372    0.0000 H       1  UNL1        0.0618
     30 H           2.0000   -0.3272    0.0000 H       1  UNL1        0.2923
     31 H           1.9169   -3.0172    0.0000 H       1  UNL1        0.0660
     32 H           2.5369   -3.6372    0.0000 H       1  UNL1        0.0660
     33 H           3.1569   -3.0172    0.0000 H       1  UNL1        0.0660
@<TRIPOS>BOND
     1     1     6    1
     2     1     9    1
     3     2    13    1
     4     2    19    1
     5     3    12    1
     6     3    30    1
     7     4     5    1
     8     4     6   ar
     9     4    10   ar
    10     5     7    2
    11     5     8    1
    12     6    11   ar
    13     7     9    1
    14     7    20    1
    15     8    14   ar
    16     8    15   ar
    17     9    21    1
    18     9    22    1
    19    10    12   ar
    20    10    23    1
    21    11    13   ar
    22    11    24    1
    23    12    13   ar
    24    14    16   ar
    25    14    25    1
    26    15    17   ar
    27    15    26    1
    28    16    18   ar
    29    16    27    1
    30    17    18   ar
    31    17    28    1
    32    18    29    1
    33    19    31    1
    34    19    32    1
    35    19    33    1
