@<TRIPOS>MOLECULE
IMPHY007298
 29 30 0 0 0
SMALL
GASTEIGER

@<TRIPOS>ATOM
      1 O          10.7404    0.3047    0.0000 O.3     1  UNL1       -0.4526
      2 O          10.7404   -1.3047    0.0000 O.3     1  UNL1       -0.4526
      3 O           2.8660    0.0000    0.0000 O.3     1  UNL1       -0.4649
      4 O           3.7320    1.5000    0.0000 O.2     1  UNL1       -0.2456
      5 C           9.7942    0.0000    0.0000 C.ar    1  UNL1        0.1668
      6 C           9.7942   -1.0000    0.0000 C.ar    1  UNL1        0.1663
      7 C           8.0622    0.0000    0.0000 C.ar    1  UNL1       -0.0213
      8 C           8.9282    0.5000    0.0000 C.ar    1  UNL1       -0.0090
      9 C           8.9282   -1.5000    0.0000 C.ar    1  UNL1       -0.0156
     10 C           8.0622   -1.0000    0.0000 C.ar    1  UNL1       -0.0509
     11 C          11.3241   -0.5000    0.0000 C.3     1  UNL1        0.2332
     12 C           7.1962    0.5000    0.0000 C.2     1  UNL1       -0.0545
     13 C           6.3301    0.0000    0.0000 C.2     1  UNL1       -0.0610
     14 C           5.4641    0.5000    0.0000 C.2     1  UNL1       -0.0550
     15 C           4.5981    0.0000    0.0000 C.2     1  UNL1        0.0225
     16 C           3.7320    0.5000    0.0000 C.2     1  UNL1        0.3317
     17 C           2.0000    0.5000    0.0000 C.3     1  UNL1        0.0820
     18 H           8.9282    1.1200    0.0000 H       1  UNL1        0.0661
     19 H           8.9282   -2.1200    0.0000 H       1  UNL1        0.0655
     20 H           7.5252   -1.3100    0.0000 H       1  UNL1        0.0625
     21 H          11.7849   -0.9147    0.0000 H       1  UNL1        0.1166
     22 H          11.7849   -0.0853    0.0000 H       1  UNL1        0.1166
     23 H           7.1962    1.1200    0.0000 H       1  UNL1        0.0623
     24 H           6.3301   -0.6200    0.0000 H       1  UNL1        0.0618
     25 H           5.4641    1.1200    0.0000 H       1  UNL1        0.0620
     26 H           4.5981   -0.6200    0.0000 H       1  UNL1        0.0689
     27 H           2.3100    1.0369    0.0000 H       1  UNL1        0.0661
     28 H           1.4631    0.8100    0.0000 H       1  UNL1        0.0661
     29 H           1.6900   -0.0369    0.0000 H       1  UNL1        0.0661
@<TRIPOS>BOND
     1     1     5    1
     2     1    11    1
     3     2     6    1
     4     2    11    1
     5     3    16    1
     6     3    17    1
     7     4    16    2
     8     5     6   ar
     9     5     8   ar
    10     6     9   ar
    11     7     8   ar
    12     7    10   ar
    13     7    12    1
    14     8    18    1
    15     9    10   ar
    16     9    19    1
    17    10    20    1
    18    11    21    1
    19    11    22    1
    20    12    13    2
    21    12    23    1
    22    13    14    1
    23    13    24    1
    24    14    15    2
    25    14    25    1
    26    15    16    1
    27    15    26    1
    28    17    27    1
    29    17    28    1
    30    17    29    1
