@<TRIPOS>MOLECULE
IMPHY009596
 23 22 0 0 0
SMALL
GASTEIGER

@<TRIPOS>ATOM
      1 O           3.7320    0.7500    0.0000 O.3     1  UNL1       -0.4648
      2 O           2.8660   -0.7500    0.0000 O.2     1  UNL1       -0.2512
      3 C           6.3301    0.2500    0.0000 C.3     1  UNL1       -0.0502
      4 C           5.4641    0.7500    0.0000 C.3     1  UNL1       -0.0185
      5 C           7.1962    0.7500    0.0000 C.3     1  UNL1       -0.0558
      6 C           4.5981    0.2500    0.0000 C.3     1  UNL1        0.0924
      7 C           8.0622    0.2500    0.0000 C.3     1  UNL1       -0.0653
      8 C           2.8660    0.2500    0.0000 C.2     1  UNL1        0.3039
      9 C           2.0000    0.7500    0.0000 C.3     1  UNL1        0.0332
     10 H           5.9316   -0.2249    0.0000 H       1  UNL1        0.0266
     11 H           6.7287   -0.2249    0.0000 H       1  UNL1        0.0266
     12 H           5.8626    1.2250    0.0000 H       1  UNL1        0.0298
     13 H           5.0656    1.2250    0.0000 H       1  UNL1        0.0298
     14 H           7.5947    1.2250    0.0000 H       1  UNL1        0.0263
     15 H           6.7976    1.2250    0.0000 H       1  UNL1        0.0263
     16 H           4.1996   -0.2249    0.0000 H       1  UNL1        0.0697
     17 H           4.9966   -0.2249    0.0000 H       1  UNL1        0.0697
     18 H           7.7522   -0.2869    0.0000 H       1  UNL1        0.0230
     19 H           8.5991   -0.0600    0.0000 H       1  UNL1        0.0230
     20 H           8.3722    0.7869    0.0000 H       1  UNL1        0.0230
     21 H           2.3100    1.2869    0.0000 H       1  UNL1        0.0342
     22 H           1.4631    1.0600    0.0000 H       1  UNL1        0.0342
     23 H           1.6900    0.2131    0.0000 H       1  UNL1        0.0342
@<TRIPOS>BOND
     1     1     6    1
     2     1     8    1
     3     2     8    2
     4     3     4    1
     5     3     5    1
     6     3    10    1
     7     3    11    1
     8     4     6    1
     9     4    12    1
    10     4    13    1
    11     5     7    1
    12     5    14    1
    13     5    15    1
    14     6    16    1
    15     6    17    1
    16     7    18    1
    17     7    19    1
    18     7    20    1
    19     8     9    1
    20     9    21    1
    21     9    22    1
    22     9    23    1
