@<TRIPOS>MOLECULE
IMPHY015348
 18 17 0 0 0
SMALL
GASTEIGER

@<TRIPOS>ATOM
      1 O           2.5369    0.2500    0.0000 O.3     1  UNL1       -0.3918
      2 C           4.2690    0.2500    0.0000 C.3     1  UNL1       -0.0209
      3 C           3.4030   -0.2500    0.0000 C.3     1  UNL1        0.0548
      4 C           5.1350   -0.2500    0.0000 C.3     1  UNL1       -0.0603
      5 C           4.2690    1.2500    0.0000 C.3     1  UNL1       -0.0603
      6 C           3.4030   -1.2500    0.0000 C.3     1  UNL1       -0.0387
      7 H           4.2690   -0.3700    0.0000 H       1  UNL1        0.0320
      8 H           3.4030    0.3700    0.0000 H       1  UNL1        0.0593
      9 H           4.8250   -0.7869    0.0000 H       1  UNL1        0.0233
     10 H           5.6720   -0.5600    0.0000 H       1  UNL1        0.0233
     11 H           5.4450    0.2869    0.0000 H       1  UNL1        0.0233
     12 H           4.8890    1.2500    0.0000 H       1  UNL1        0.0233
     13 H           4.2690    1.8700    0.0000 H       1  UNL1        0.0233
     14 H           3.6490    1.2500    0.0000 H       1  UNL1        0.0233
     15 H           2.7830   -1.2500    0.0000 H       1  UNL1        0.0255
     16 H           3.4030   -1.8700    0.0000 H       1  UNL1        0.0255
     17 H           4.0230   -1.2500    0.0000 H       1  UNL1        0.0255
     18 H           2.0000   -0.0600    0.0000 H       1  UNL1        0.2098
@<TRIPOS>BOND
     1     1     3    1
     2     1    18    1
     3     2     3    1
     4     2     4    1
     5     2     5    1
     6     2     7    1
     7     3     6    1
     8     3     8    1
     9     4     9    1
    10     4    10    1
    11     4    11    1
    12     5    12    1
    13     5    13    1
    14     5    14    1
    15     6    15    1
    16     6    16    1
    17     6    17    1
