@<TRIPOS>MOLECULE
IMPHY006706
 47 48 0 0 0
SMALL
GASTEIGER

@<TRIPOS>ATOM
      1 O           6.3406   -3.4628    0.0000 O.3     1  UNL1       -0.4773
      2 O           4.6087   -3.4428    0.0000 O.2     1  UNL1       -0.2455
      3 O           3.7320    3.5458    0.0000 O.3     1  UNL1       -0.4806
      4 O           2.2320    2.6798    0.0000 O.2     1  UNL1       -0.2510
      5 C           3.7320    0.0817    0.0000 C.3     1  UNL1       -0.0254
      6 C           4.5981   -0.4183    0.0000 C.3     1  UNL1       -0.0255
      7 C           4.5981   -1.4182    0.0000 C.3     1  UNL1        0.0027
      8 C           2.8660   -0.4183    0.0000 C.3     1  UNL1       -0.0382
      9 C           3.7320   -1.9182    0.0000 C.3     1  UNL1       -0.0429
     10 C           2.8660   -1.4182    0.0000 C.3     1  UNL1       -0.0492
     11 C           5.4920    0.1164    0.0000 C.3     1  UNL1       -0.0454
     12 C           3.2320    0.9478    0.0000 C.3     1  UNL1       -0.0370
     13 C           5.4920   -1.9529    0.0000 C.2     1  UNL1        0.0387
     14 C           4.2320    0.9478    0.0000 C.3     1  UNL1       -0.0590
     15 C           4.5981   -2.4182    0.0000 C.3     1  UNL1       -0.0551
     16 C           6.3981   -0.3974    0.0000 C.3     1  UNL1       -0.0337
     17 C           2.0000    0.0817    0.0000 C.3     1  UNL1       -0.0619
     18 C           6.3981   -1.4391    0.0000 C.2     1  UNL1       -0.0735
     19 C           3.7320    1.8138    0.0000 C.3     1  UNL1        0.0453
     20 C           5.4804   -2.9529    0.0000 C.2     1  UNL1        0.3330
     21 C           3.2320    2.6798    0.0000 C.2     1  UNL1        0.3047
     22 H           4.5915    0.4317    0.0000 H       1  UNL1        0.0315
     23 H           2.8660    0.2017    0.0000 H       1  UNL1        0.0303
     24 H           3.3335   -2.3932    0.0000 H       1  UNL1        0.0274
     25 H           4.1306   -2.3932    0.0000 H       1  UNL1        0.0274
     26 H           2.2554   -1.3106    0.0000 H       1  UNL1        0.0268
     27 H           2.6540   -2.0009    0.0000 H       1  UNL1        0.0268
     28 H           5.8856    0.5954    0.0000 H       1  UNL1        0.0271
     29 H           5.0874    0.5862    0.0000 H       1  UNL1        0.0271
     30 H           2.7571    1.3463    0.0000 H       1  UNL1        0.0276
     31 H           2.7571    0.5492    0.0000 H       1  UNL1        0.0276
     32 H           4.7690    0.6378    0.0000 H       1  UNL1        0.0235
     33 H           4.5420    1.4847    0.0000 H       1  UNL1        0.0235
     34 H           3.6951    1.2578    0.0000 H       1  UNL1        0.0235
     35 H           3.9781   -2.4182    0.0000 H       1  UNL1        0.0238
     36 H           4.5981   -3.0382    0.0000 H       1  UNL1        0.0238
     37 H           5.2181   -2.4182    0.0000 H       1  UNL1        0.0238
     38 H           7.0089   -0.5035    0.0000 H       1  UNL1        0.0308
     39 H           6.6071    0.1863    0.0000 H       1  UNL1        0.0308
     40 H           2.3100    0.6187    0.0000 H       1  UNL1        0.0233
     41 H           1.4631    0.3917    0.0000 H       1  UNL1        0.0233
     42 H           1.6900   -0.4552    0.0000 H       1  UNL1        0.0233
     43 H           6.9338   -1.7511    0.0000 H       1  UNL1        0.0577
     44 H           4.2070    1.4153    0.0000 H       1  UNL1        0.0378
     45 H           4.2070    2.2123    0.0000 H       1  UNL1        0.0378
     46 H           6.3335   -4.0828    0.0000 H       1  UNL1        0.2954
     47 H           3.4220    4.0828    0.0000 H       1  UNL1        0.2951
@<TRIPOS>BOND
     1     1    20    1
     2     1    46    1
     3     2    20    2
     4     3    21    1
     5     3    47    1
     6     4    21    2
     7     5     6    1
     8     5     8    1
     9     5    12    1
    10     5    14    1
    11     6     7    1
    12     6    11    1
    13     6    22    1
    14     7     9    1
    15     7    13    1
    16     7    15    1
    17     8    10    1
    18     8    17    1
    19     8    23    1
    20     9    10    1
    21     9    24    1
    22     9    25    1
    23    10    26    1
    24    10    27    1
    25    11    16    1
    26    11    28    1
    27    11    29    1
    28    12    19    1
    29    12    30    1
    30    12    31    1
    31    13    18    2
    32    13    20    1
    33    14    32    1
    34    14    33    1
    35    14    34    1
    36    15    35    1
    37    15    36    1
    38    15    37    1
    39    16    18    1
    40    16    38    1
    41    16    39    1
    42    17    40    1
    43    17    41    1
    44    17    42    1
    45    18    43    1
    46    19    21    1
    47    19    44    1
    48    19    45    1
