@<TRIPOS>MOLECULE
IMPHY005812
 174 184 0 0 0
SMALL
GASTEIGER

@<TRIPOS>ATOM
      1 O          14.8947   -3.9270    0.0000 O.3     1  UNL1       -0.3448
      2 O          14.4408   -5.8600    0.0000 O.3     1  UNL1       -0.3480
      3 O           7.3842   -1.9366    0.0000 O.3     1  UNL1       -0.3913
      4 O           6.6798    0.4557    0.0000 O.3     1  UNL1       -0.3376
      5 O           7.4909   -0.7028    0.0000 O.3     1  UNL1       -0.3143
      6 O           9.2922    0.8744    0.0000 O.3     1  UNL1       -0.3374
      7 O           8.6081    2.7538    0.0000 O.3     1  UNL1       -0.3400
      8 O           6.6385    3.1011    0.0000 O.3     1  UNL1       -0.3401
      9 O           5.7589   -0.7028    0.0000 O.3     1  UNL1       -0.3404
     10 O           4.7102    0.8030    0.0000 O.3     1  UNL1       -0.3924
     11 O           9.5930    2.5801    0.0000 O.3     1  UNL1       -0.3461
     12 O           7.4909   -2.7028    0.0000 O.3     1  UNL1       -0.3841
     13 O           9.4742    4.2538    0.0000 O.3     1  UNL1       -0.3405
     14 O           5.0109    2.5087    0.0000 O.3     1  UNL1       -0.3405
     15 O           5.7589   -3.7028    0.0000 O.3     1  UNL1       -0.3864
     16 O          11.2618    0.5271    0.0000 O.3     1  UNL1       -0.3841
     17 O           4.0268   -2.7028    0.0000 O.3     1  UNL1       -0.3865
     18 O           6.8761    3.7538    0.0000 O.3     1  UNL1       -0.3841
     19 O          12.5474    2.0592    0.0000 O.3     1  UNL1       -0.3864
     20 O           5.9545    4.9805    0.0000 O.3     1  UNL1       -0.3841
     21 O          11.8633    3.9386    0.0000 O.3     1  UNL1       -0.3869
     22 O           3.1608   -1.2028    0.0000 O.3     1  UNL1       -0.3924
     23 O           6.8761    5.7538    0.0000 O.3     1  UNL1       -0.3864
     24 O           3.9849    5.3278    0.0000 O.3     1  UNL1       -0.3864
     25 O           8.6081    6.7538    0.0000 O.3     1  UNL1       -0.3865
     26 O           2.6993    3.7957    0.0000 O.3     1  UNL1       -0.3865
     27 O          10.3402    6.7538    0.0000 O.3     1  UNL1       -0.3924
     28 O           2.3985    2.0899    0.0000 O.3     1  UNL1       -0.3924
     29 C          12.4305   -3.6788    0.0000 C.3     1  UNL1       -0.0233
     30 C          12.6079   -2.6947    0.0000 C.3     1  UNL1       -0.0295
     31 C          13.3076   -4.1466    0.0000 C.3     1  UNL1       -0.0015
     32 C          11.8444   -2.0490    0.0000 C.3     1  UNL1       -0.0306
     33 C          14.0247   -3.4582    0.0000 C.3     1  UNL1        0.0660
     34 C          10.9034   -2.3874    0.0000 C.3     1  UNL1       -0.0285
     35 C          13.5932   -2.5627    0.0000 C.3     1  UNL1       -0.0226
     36 C          11.4895   -4.0172    0.0000 C.3     1  UNL1       -0.0467
     37 C          13.7405   -5.0350    0.0000 C.3     1  UNL1        0.0160
     38 C          10.0977   -1.7271    0.0000 C.3     1  UNL1       -0.0056
     39 C          10.7259   -3.3715    0.0000 C.3     1  UNL1       -0.0486
     40 C          14.7193   -4.8995    0.0000 C.3     1  UNL1        0.1732
     41 C          12.2530   -4.6630    0.0000 C.3     1  UNL1       -0.0590
     42 C          12.0450   -1.0268    0.0000 C.3     1  UNL1       -0.0311
     43 C          10.2747   -0.7006    0.0000 C.2     1  UNL1       -0.0667
     44 C           9.0855   -2.1178    0.0000 C.3     1  UNL1       -0.0170
     45 C          11.2548   -0.3481    0.0000 C.2     1  UNL1       -0.0839
     46 C          13.2699   -5.9174    0.0000 C.3     1  UNL1       -0.0572
     47 C          15.6903   -4.6605    0.0000 C.3     1  UNL1        0.0020
     48 C           9.9279   -2.7126    0.0000 C.3     1  UNL1       -0.0555
     49 C           9.4516    0.0064    0.0000 C.3     1  UNL1       -0.0210
     50 C           8.2463   -1.4300    0.0000 C.3     1  UNL1        0.0641
     51 C           8.4306   -0.3608    0.0000 C.3     1  UNL1        0.0455
     52 C          16.3828   -5.3819    0.0000 C.3     1  UNL1       -0.0435
     53 C           7.6646    0.2820    0.0000 C.3     1  UNL1        0.2076
     54 C          15.1333   -6.5814    0.0000 C.3     1  UNL1        0.0535
     55 C          16.1043   -6.3424    0.0000 C.3     1  UNL1       -0.0201
     56 C           8.3074    1.0480    0.0000 C.3     1  UNL1        0.1444
     57 C          16.7968   -7.0638    0.0000 C.3     1  UNL1       -0.0603
     58 C           7.9654    1.9877    0.0000 C.3     1  UNL1        0.1216
     59 C           6.3378    1.3954    0.0000 C.3     1  UNL1        0.1137
     60 C           6.9806    2.1614    0.0000 C.3     1  UNL1        0.1188
     61 C           6.6249   -1.2028    0.0000 C.3     1  UNL1        0.1912
     62 C           5.3530    1.5690    0.0000 C.3     1  UNL1        0.0730
     63 C           9.9350    1.6404    0.0000 C.3     1  UNL1        0.1881
     64 C           6.6249   -2.2028    0.0000 C.3     1  UNL1        0.1342
     65 C           8.6081    3.7538    0.0000 C.3     1  UNL1        0.1884
     66 C           5.7589   -2.7028    0.0000 C.3     1  UNL1        0.1141
     67 C          10.9198    1.4668    0.0000 C.3     1  UNL1        0.1341
     68 C           4.8929   -1.2028    0.0000 C.3     1  UNL1        0.1130
     69 C           5.6537    3.2747    0.0000 C.3     1  UNL1        0.1884
     70 C           4.8929   -2.2028    0.0000 C.3     1  UNL1        0.1119
     71 C           7.7421    4.2538    0.0000 C.3     1  UNL1        0.1341
     72 C          11.5626    2.2328    0.0000 C.3     1  UNL1        0.1137
     73 C           5.3117    4.2144    0.0000 C.3     1  UNL1        0.1341
     74 C          10.2357    3.3462    0.0000 C.3     1  UNL1        0.0792
     75 C          11.2205    3.1725    0.0000 C.3     1  UNL1        0.1069
     76 C           4.0268   -0.7028    0.0000 C.3     1  UNL1        0.0730
     77 C           7.7421    5.2538    0.0000 C.3     1  UNL1        0.1141
     78 C           9.4742    5.2538    0.0000 C.3     1  UNL1        0.1130
     79 C           4.3269    4.3881    0.0000 C.3     1  UNL1        0.1141
     80 C           8.6081    5.7538    0.0000 C.3     1  UNL1        0.1119
     81 C           4.0261    2.6823    0.0000 C.3     1  UNL1        0.1130
     82 C           3.6841    3.6220    0.0000 C.3     1  UNL1        0.1119
     83 C          10.3402    5.7538    0.0000 C.3     1  UNL1        0.0730
     84 C           3.3833    1.9163    0.0000 C.3     1  UNL1        0.0730
     85 H          12.8464   -1.8789    0.0000 H       1  UNL1        0.0310
     86 H          12.6957   -4.7366    0.0000 H       1  UNL1        0.0335
     87 H          12.6464   -1.7675    0.0000 H       1  UNL1        0.0310
     88 H          14.6392   -2.8709    0.0000 H       1  UNL1        0.0600
     89 H          11.5524   -2.9363    0.0000 H       1  UNL1        0.0312
     90 H          14.1769   -2.3538    0.0000 H       1  UNL1        0.0293
     91 H          13.4467   -1.9603    0.0000 H       1  UNL1        0.0293
     92 H          11.0130   -4.4139    0.0000 H       1  UNL1        0.0271
     93 H          11.7974   -4.5554    0.0000 H       1  UNL1        0.0271
     94 H          14.0952   -5.5435    0.0000 H       1  UNL1        0.0354
     95 H          10.1441   -3.1572    0.0000 H       1  UNL1        0.0268
     96 H          10.4138   -3.9072    0.0000 H       1  UNL1        0.0268
     97 H          11.6429   -4.5530    0.0000 H       1  UNL1        0.0235
     98 H          12.1430   -5.2731    0.0000 H       1  UNL1        0.0235
     99 H          12.8632   -4.7730    0.0000 H       1  UNL1        0.0235
    100 H          12.6240   -1.2486    0.0000 H       1  UNL1        0.0310
    101 H          12.3625   -0.4944    0.0000 H       1  UNL1        0.0310
    102 H           8.6162   -2.5230    0.0000 H       1  UNL1        0.0299
    103 H           9.4044   -2.6495    0.0000 H       1  UNL1        0.0299
    104 H          11.3672    0.2616    0.0000 H       1  UNL1        0.0572
    105 H          12.7228   -5.6256    0.0000 H       1  UNL1        0.0234
    106 H          12.9781   -6.4644    0.0000 H       1  UNL1        0.0234
    107 H          13.8169   -6.2091    0.0000 H       1  UNL1        0.0234
    108 H          16.2054   -4.3154    0.0000 H       1  UNL1        0.0317
    109 H          15.4399   -4.0934    0.0000 H       1  UNL1        0.0317
    110 H           9.3169   -2.6073    0.0000 H       1  UNL1        0.0238
    111 H           9.8226   -3.3236    0.0000 H       1  UNL1        0.0238
    112 H          10.5389   -2.8179    0.0000 H       1  UNL1        0.0238
    113 H           9.9301    0.4006    0.0000 H       1  UNL1        0.0315
    114 H           9.1451    0.5453    0.0000 H       1  UNL1        0.0315
    115 H           7.5473   -0.9465    0.0000 H       1  UNL1        0.0598
    116 H           8.5798    0.4760    0.0000 H       1  UNL1        0.0382
    117 H          16.9393   -5.6554    0.0000 H       1  UNL1        0.0270
    118 H          16.7488   -4.8814    0.0000 H       1  UNL1        0.0270
    119 H          14.6183   -6.9266    0.0000 H       1  UNL1        0.0563
    120 H          15.3838   -7.1486    0.0000 H       1  UNL1        0.0563
    121 H          16.7064   -6.1942    0.0000 H       1  UNL1        0.0320
    122 H           8.5194    0.4654    0.0000 H       1  UNL1        0.0678
    123 H           7.3794   -1.3167    0.0000 H       1  UNL1        0.2098
    124 H          16.3496   -7.4931    0.0000 H       1  UNL1        0.0233
    125 H          17.2262   -7.5111    0.0000 H       1  UNL1        0.0233
    126 H          17.2441   -6.6344    0.0000 H       1  UNL1        0.0233
    127 H           8.5759    1.8801    0.0000 H       1  UNL1        0.0652
    128 H           5.9392    0.9204    0.0000 H       1  UNL1        0.0647
    129 H           6.3700    2.2690    0.0000 H       1  UNL1        0.0651
    130 H           7.1618   -1.5128    0.0000 H       1  UNL1        0.0939
    131 H           5.5650    2.1516    0.0000 H       1  UNL1        0.0584
    132 H           4.8160    1.8790    0.0000 H       1  UNL1        0.0584
    133 H           9.3244    1.7481    0.0000 H       1  UNL1        0.0937
    134 H           6.6249   -2.8228    0.0000 H       1  UNL1        0.0671
    135 H           8.0712    3.4438    0.0000 H       1  UNL1        0.0938
    136 H           5.2220   -3.0128    0.0000 H       1  UNL1        0.0648
    137 H          10.5212    0.9919    0.0000 H       1  UNL1        0.0671
    138 H           4.8929   -0.5828    0.0000 H       1  UNL1        0.0647
    139 H           6.0522    3.7497    0.0000 H       1  UNL1        0.0938
    140 H           4.3559   -1.8928    0.0000 H       1  UNL1        0.0647
    141 H           4.0996    0.9106    0.0000 H       1  UNL1        0.2095
    142 H           7.2052    4.5638    0.0000 H       1  UNL1        0.0671
    143 H          11.7746    1.6502    0.0000 H       1  UNL1        0.0647
    144 H           7.4909   -3.3228    0.0000 H       1  UNL1        0.2101
    145 H           5.0996    4.7970    0.0000 H       1  UNL1        0.0671
    146 H          10.4478    3.9288    0.0000 H       1  UNL1        0.0587
    147 H           9.6988    3.6562    0.0000 H       1  UNL1        0.0587
    148 H          11.8311    3.0649    0.0000 H       1  UNL1        0.0643
    149 H           4.4254   -0.2279    0.0000 H       1  UNL1        0.0584
    150 H           3.6283   -0.2279    0.0000 H       1  UNL1        0.0584
    151 H           7.7421    5.8738    0.0000 H       1  UNL1        0.0648
    152 H          10.0111    4.9438    0.0000 H       1  UNL1        0.0647
    153 H           5.2220   -4.0128    0.0000 H       1  UNL1        0.2100
    154 H           3.7163    4.4957    0.0000 H       1  UNL1        0.0648
    155 H           9.1451    6.0638    0.0000 H       1  UNL1        0.0647
    156 H          11.8724    0.4194    0.0000 H       1  UNL1        0.2101
    157 H           4.2382    2.0997    0.0000 H       1  UNL1        0.0647
    158 H           4.0268   -3.3228    0.0000 H       1  UNL1        0.2100
    159 H           4.0555    4.2046    0.0000 H       1  UNL1        0.0647
    160 H           6.3392    4.0638    0.0000 H       1  UNL1        0.2101
    161 H          12.9459    2.5341    0.0000 H       1  UNL1        0.2100
    162 H           5.7424    5.5631    0.0000 H       1  UNL1        0.2101
    163 H          10.5522    5.1712    0.0000 H       1  UNL1        0.0584
    164 H          10.9508    5.8614    0.0000 H       1  UNL1        0.0584
    165 H          11.6513    4.5212    0.0000 H       1  UNL1        0.2100
    166 H           2.6239   -0.8928    0.0000 H       1  UNL1        0.2095
    167 H           6.8761    6.3738    0.0000 H       1  UNL1        0.2100
    168 H           3.1713    1.3337    0.0000 H       1  UNL1        0.0584
    169 H           3.9203    1.6063    0.0000 H       1  UNL1        0.0584
    170 H           3.3743    5.4354    0.0000 H       1  UNL1        0.2100
    171 H           9.1451    7.0638    0.0000 H       1  UNL1        0.2100
    172 H           2.3008    3.3207    0.0000 H       1  UNL1        0.2100
    173 H          10.8771    7.0638    0.0000 H       1  UNL1        0.2095
    174 H           2.0000    1.6150    0.0000 H       1  UNL1        0.2095
@<TRIPOS>BOND
     1     1    33    1
     2     1    40    1
     3     2    40    1
     4     2    54    1
     5     3    50    1
     6     3   123    1
     7     4    53    1
     8     4    59    1
     9    53     5    1
    10    61     5    1
    11    56     6    1
    12    63     6    1
    13    58     7    1
    14    65     7    1
    15    60     8    1
    16    69     8    1
    17     9    61    1
    18     9    68    1
    19    10    62    1
    20    10   141    1
    21    11    63    1
    22    11    74    1
    23    64    12    1
    24    12   144    1
    25    13    65    1
    26    13    78    1
    27    14    69    1
    28    14    81    1
    29    66    15    1
    30    15   153    1
    31    67    16    1
    32    16   156    1
    33    70    17    1
    34    17   158    1
    35    71    18    1
    36    18   160    1
    37    72    19    1
    38    19   161    1
    39    73    20    1
    40    20   162    1
    41    75    21    1
    42    21   165    1
    43    22    76    1
    44    22   166    1
    45    77    23    1
    46    23   167    1
    47    79    24    1
    48    24   170    1
    49    80    25    1
    50    25   171    1
    51    82    26    1
    52    26   172    1
    53    27    83    1
    54    27   173    1
    55    28    84    1
    56    28   174    1
    57    29    30    1
    58    29    31    1
    59    29    36    1
    60    29    41    1
    61    30    32    1
    62    30    35    1
    63    30    85    1
    64    31    33    1
    65    31    37    1
    66    31    86    1
    67    32    34    1
    68    32    42    1
    69    32    87    1
    70    33    35    1
    71    33    88    1
    72    34    38    1
    73    34    39    1
    74    34    89    1
    75    35    90    1
    76    35    91    1
    77    36    39    1
    78    36    92    1
    79    36    93    1
    80    37    40    1
    81    37    46    1
    82    37    94    1
    83    38    43    1
    84    38    44    1
    85    38    48    1
    86    39    95    1
    87    39    96    1
    88    40    47    1
    89    41    97    1
    90    41    98    1
    91    41    99    1
    92    42    45    1
    93    42   100    1
    94    42   101    1
    95    43    45    2
    96    43    49    1
    97    44    50    1
    98    44   102    1
    99    44   103    1
   100    45   104    1
   101    46   105    1
   102    46   106    1
   103    46   107    1
   104    47    52    1
   105    47   108    1
   106    47   109    1
   107    48   110    1
   108    48   111    1
   109    48   112    1
   110    49    51    1
   111    49   113    1
   112    49   114    1
   113    50    51    1
   114    50   115    1
   115    51    53    1
   116    51   116    1
   117    52    55    1
   118    52   117    1
   119    52   118    1
   120    53    56    1
   121    54    55    1
   122    54   119    1
   123    54   120    1
   124    55    57    1
   125    55   121    1
   126    56    58    1
   127    56   122    1
   128    57   124    1
   129    57   125    1
   130    57   126    1
   131    58    60    1
   132    58   127    1
   133    59    60    1
   134    59    62    1
   135    59   128    1
   136    60   129    1
   137    61    64    1
   138    61   130    1
   139    62   131    1
   140    62   132    1
   141    63    67    1
   142    63   133    1
   143    64    66    1
   144    64   134    1
   145    65    71    1
   146    65   135    1
   147    66    70    1
   148    66   136    1
   149    67    72    1
   150    67   137    1
   151    68    70    1
   152    68    76    1
   153    68   138    1
   154    69    73    1
   155    69   139    1
   156    70   140    1
   157    71    77    1
   158    71   142    1
   159    72    75    1
   160    72   143    1
   161    73    79    1
   162    73   145    1
   163    74    75    1
   164    74   146    1
   165    74   147    1
   166    75   148    1
   167    76   149    1
   168    76   150    1
   169    77    80    1
   170    77   151    1
   171    78    80    1
   172    78    83    1
   173    78   152    1
   174    79    82    1
   175    79   154    1
   176    80   155    1
   177    81    82    1
   178    81    84    1
   179    81   157    1
   180    82   159    1
   181    83   163    1
   182    83   164    1
   183    84   168    1
   184    84   169    1
