@<TRIPOS>MOLECULE
IMPHY009747
 38 38 0 0 0
SMALL
GASTEIGER

@<TRIPOS>ATOM
      1 O           4.0000    0.0000    0.0000 O.3     1  UNL1       -0.3842
      2 C           3.0000    0.0000    0.0000 C.3     1  UNL1        0.0884
      3 C           3.0000    1.0000    0.0000 C.3     1  UNL1       -0.0166
      4 C           3.0000   -1.0000    0.0000 C.ar    1  UNL1       -0.0164
      5 C           3.8660    1.5000    0.0000 C.3     1  UNL1       -0.0316
      6 C           2.0000    0.0000    0.0000 C.3     1  UNL1       -0.0319
      7 C           2.1340   -1.5000    0.0000 C.ar    1  UNL1       -0.0556
      8 C           3.8660   -1.5000    0.0000 C.ar    1  UNL1       -0.0556
      9 C           3.8660    2.5000    0.0000 C.2     1  UNL1       -0.0852
     10 C           2.1340   -2.5000    0.0000 C.ar    1  UNL1       -0.0585
     11 C           3.8660   -2.5000    0.0000 C.ar    1  UNL1       -0.0585
     12 C           3.0000   -3.0000    0.0000 C.ar    1  UNL1       -0.0504
     13 C           4.7320    3.0000    0.0000 C.2     1  UNL1       -0.0796
     14 C           3.0000   -4.0000    0.0000 C.3     1  UNL1       -0.0397
     15 C           4.7320    4.0000    0.0000 C.3     1  UNL1       -0.0440
     16 C           5.5981    2.5000    0.0000 C.3     1  UNL1       -0.0440
     17 H           2.7880    1.5826    0.0000 H       1  UNL1        0.0299
     18 H           2.3894    0.8923    0.0000 H       1  UNL1        0.0299
     19 H           4.0781    0.9174    0.0000 H       1  UNL1        0.0308
     20 H           4.4766    1.6077    0.0000 H       1  UNL1        0.0308
     21 H           2.0000    0.6200    0.0000 H       1  UNL1        0.0261
     22 H           1.3800    0.0000    0.0000 H       1  UNL1        0.0261
     23 H           2.0000   -0.6200    0.0000 H       1  UNL1        0.0261
     24 H           1.5970   -1.1900    0.0000 H       1  UNL1        0.0621
     25 H           4.4030   -1.1900    0.0000 H       1  UNL1        0.0621
     26 H           3.3291    2.8100    0.0000 H       1  UNL1        0.0571
     27 H           4.3100    0.5369    0.0000 H       1  UNL1        0.2106
     28 H           1.5970   -2.8100    0.0000 H       1  UNL1        0.0620
     29 H           4.4030   -2.8100    0.0000 H       1  UNL1        0.0620
     30 H           2.3800   -4.0000    0.0000 H       1  UNL1        0.0278
     31 H           3.0000   -4.6200    0.0000 H       1  UNL1        0.0278
     32 H           3.6200   -4.0000    0.0000 H       1  UNL1        0.0278
     33 H           5.2881    1.9631    0.0000 H       1  UNL1        0.0274
     34 H           6.1350    2.1900    0.0000 H       1  UNL1        0.0274
     35 H           5.9081    3.0369    0.0000 H       1  UNL1        0.0274
     36 H           5.3520    4.0000    0.0000 H       1  UNL1        0.0274
     37 H           4.7320    4.6200    0.0000 H       1  UNL1        0.0274
     38 H           4.1120    4.0000    0.0000 H       1  UNL1        0.0274
@<TRIPOS>BOND
     1     1     2    1
     2     1    27    1
     3     2     3    1
     4     2     4    1
     5     2     6    1
     6     3     5    1
     7     3    17    1
     8     3    18    1
     9     4     7   ar
    10     4     8   ar
    11     5     9    1
    12     5    19    1
    13     5    20    1
    14     6    21    1
    15     6    22    1
    16     6    23    1
    17     7    10   ar
    18     7    24    1
    19     8    11   ar
    20     8    25    1
    21     9    13    2
    22     9    26    1
    23    10    12   ar
    24    10    28    1
    25    11    12   ar
    26    11    29    1
    27    12    14    1
    28    13    15    1
    29    13    16    1
    30    14    30    1
    31    14    31    1
    32    14    32    1
    33    15    36    1
    34    15    37    1
    35    15    38    1
    36    16    33    1
    37    16    34    1
    38    16    35    1
