@<TRIPOS>MOLECULE
IMPHY017478
 25 25 0 0 0
SMALL
GASTEIGER

@<TRIPOS>ATOM
      1 N           3.7320    1.2306    0.0000 N.ar    1  UNL1       -0.3533
      2 C           2.8660   -0.2694    0.0000 C.3     1  UNL1       -0.0350
      3 C           2.8660   -1.2694    0.0000 C.3     1  UNL1       -0.0517
      4 C           3.7320    0.2306    0.0000 C.3     1  UNL1        0.0227
      5 C           2.0000   -1.7694    0.0000 C.3     1  UNL1       -0.0559
      6 C           2.0000   -2.7694    0.0000 C.3     1  UNL1       -0.0653
      7 C           4.5411    1.8184    0.0000 C.ar    1  UNL1        0.0046
      8 C           2.9230    1.8184    0.0000 C.ar    1  UNL1        0.0046
      9 C           4.2320    2.7694    0.0000 C.ar    1  UNL1       -0.0442
     10 C           3.2320    2.7694    0.0000 C.ar    1  UNL1       -0.0442
     11 H           2.6540    0.3132    0.0000 H       1  UNL1        0.0282
     12 H           2.2554   -0.3771    0.0000 H       1  UNL1        0.0282
     13 H           3.0781   -1.8520    0.0000 H       1  UNL1        0.0266
     14 H           3.4766   -1.1618    0.0000 H       1  UNL1        0.0266
     15 H           3.9441   -0.3520    0.0000 H       1  UNL1        0.0491
     16 H           4.3426    0.3382    0.0000 H       1  UNL1        0.0491
     17 H           1.7880   -1.1868    0.0000 H       1  UNL1        0.0263
     18 H           1.3894   -1.8771    0.0000 H       1  UNL1        0.0263
     19 H           1.3800   -2.7694    0.0000 H       1  UNL1        0.0230
     20 H           2.0000   -3.3894    0.0000 H       1  UNL1        0.0230
     21 H           2.6200   -2.7694    0.0000 H       1  UNL1        0.0230
     22 H           5.1307    1.6268    0.0000 H       1  UNL1        0.0809
     23 H           2.3334    1.6268    0.0000 H       1  UNL1        0.0809
     24 H           4.5965    3.2710    0.0000 H       1  UNL1        0.0632
     25 H           2.8676    3.2710    0.0000 H       1  UNL1        0.0632
@<TRIPOS>BOND
     1     1     4    1
     2     1     7   ar
     3     1     8   ar
     4     2     3    1
     5     2     4    1
     6     2    11    1
     7     2    12    1
     8     3     5    1
     9     3    13    1
    10     3    14    1
    11     4    15    1
    12     4    16    1
    13     5     6    1
    14     5    17    1
    15     5    18    1
    16     6    19    1
    17     6    20    1
    18     6    21    1
    19     7     9   ar
    20     7    22    1
    21     8    10   ar
    22     8    23    1
    23     9    10   ar
    24     9    24    1
    25    10    25    1
