@<TRIPOS>MOLECULE
IMPHY012523
 37 41 0 0 0
SMALL
GASTEIGER

@<TRIPOS>ATOM
      1 O           6.3002   -1.1621    0.0000 O.3     1  UNL1       -0.3908
      2 O           3.4519   -2.7090    0.0000 O.3     1  UNL1       -0.4526
      3 O           2.0000   -1.8708    0.0000 O.3     1  UNL1       -0.4526
      4 N           4.5518    1.8725    0.0000 N.3     1  UNL1       -0.2906
      5 C           5.4178    1.3725    0.0000 C.3     1  UNL1        0.0412
      6 C           5.4178    0.3725    0.0000 C.3     1  UNL1        0.0302
      7 C           6.3117    1.9072    0.0000 C.2     1  UNL1       -0.0545
      8 C           6.3117   -0.1622    0.0000 C.3     1  UNL1        0.0672
      9 C           4.9169    2.7968    0.0000 C.3     1  UNL1        0.0035
     10 C           5.9105    2.8164    0.0000 C.3     1  UNL1       -0.0174
     11 C           4.5518   -0.1275    0.0000 C.ar    1  UNL1       -0.0319
     12 C           3.6857    1.3725    0.0000 C.3     1  UNL1        0.0250
     13 C           7.2178    0.3517    0.0000 C.3     1  UNL1       -0.0077
     14 C           3.6857    0.3725    0.0000 C.ar    1  UNL1       -0.0261
     15 C           7.2178    1.3933    0.0000 C.2     1  UNL1       -0.0808
     16 C           4.5678   -1.1690    0.0000 C.ar    1  UNL1       -0.0123
     17 C           2.7757   -0.1344    0.0000 C.ar    1  UNL1       -0.0115
     18 C           3.6698   -1.6968    0.0000 C.ar    1  UNL1        0.1665
     19 C           2.7677   -1.1760    0.0000 C.ar    1  UNL1        0.1665
     20 C           2.4220   -2.8164    0.0000 C.3     1  UNL1        0.2332
     21 H           6.1539    0.9475    0.0000 H       1  UNL1        0.0516
     22 H           5.4112   -0.4775    0.0000 H       1  UNL1        0.0393
     23 H           6.8456   -0.4773    0.0000 H       1  UNL1        0.0603
     24 H           4.9863    3.4129    0.0000 H       1  UNL1        0.0430
     25 H           4.3153    2.9467    0.0000 H       1  UNL1        0.0430
     26 H           6.5057    2.9899    0.0000 H       1  UNL1        0.0323
     27 H           5.8168    3.4293    0.0000 H       1  UNL1        0.0323
     28 H           3.4737    1.9551    0.0000 H       1  UNL1        0.0476
     29 H           3.0752    1.2648    0.0000 H       1  UNL1        0.0476
     30 H           7.4268   -0.2320    0.0000 H       1  UNL1        0.0333
     31 H           7.8286    0.4578    0.0000 H       1  UNL1        0.0333
     32 H           7.7535    1.7054    0.0000 H       1  UNL1        0.0573
     33 H           5.1083   -1.4728    0.0000 H       1  UNL1        0.0658
     34 H           2.2424    0.1818    0.0000 H       1  UNL1        0.0658
     35 H           6.8335   -1.4783    0.0000 H       1  UNL1        0.2098
     36 H           1.8324   -3.0081    0.0000 H       1  UNL1        0.1166
     37 H           2.5507   -3.4229    0.0000 H       1  UNL1        0.1166
@<TRIPOS>BOND
     1     8     1    1
     2     1    35    1
     3     2    18    1
     4     2    20    1
     5     3    19    1
     6     3    20    1
     7     4     5    1
     8     4     9    1
     9     4    12    1
    10     5     6    1
    11     5     7    1
    12     5    21    1
    13     6     8    1
    14     6    11    1
    15     6    22    1
    16     7    10    1
    17     7    15    2
    18     8    13    1
    19     8    23    1
    20     9    10    1
    21     9    24    1
    22     9    25    1
    23    10    26    1
    24    10    27    1
    25    11    14   ar
    26    11    16   ar
    27    12    14    1
    28    12    28    1
    29    12    29    1
    30    13    15    1
    31    13    30    1
    32    13    31    1
    33    14    17   ar
    34    15    32    1
    35    16    18   ar
    36    16    33    1
    37    17    19   ar
    38    17    34    1
    39    18    19   ar
    40    20    36    1
    41    20    37    1
