@<TRIPOS>MOLECULE
IMPHY009122
 45 48 0 0 0
SMALL
GASTEIGER

@<TRIPOS>ATOM
      1 O           2.8432   -1.5319    0.0000 O.3     1  UNL1       -0.3866
      2 O           5.6447    0.6165    0.0000 O.3     1  UNL1       -0.4560
      3 O           2.0000   -0.3074    0.0000 O.3     1  UNL1       -0.4627
      4 O           2.8906    1.0392    0.0000 O.3     1  UNL1       -0.3737
      5 O           6.3518   -1.9383    0.0000 O.3     1  UNL1       -0.3799
      6 O           2.2072   -1.8805    0.0000 O.2     1  UNL1       -0.2499
      7 O           4.2452    2.2896    0.0000 O.3     1  UNL1       -0.4658
      8 O           7.0273   -0.3074    0.0000 O.2     1  UNL1       -0.2479
      9 O           2.8310    2.2896    0.0000 O.2     1  UNL1       -0.2474
     10 C           4.7208   -1.6139    0.0000 C.3     1  UNL1        0.0431
     11 C           3.7969   -1.2312    0.0000 C.3     1  UNL1        0.0972
     12 C           3.4142   -0.3074    0.0000 C.3     1  UNL1        0.1728
     13 C           4.6402   -2.6047    0.0000 C.3     1  UNL1       -0.0325
     14 C           4.3548   -0.3074    0.0000 C.3     1  UNL1       -0.0009
     15 C           3.7969    0.6165    0.0000 C.3     1  UNL1        0.2210
     16 C           3.1533   -1.9888    0.0000 C.3     1  UNL1       -0.0218
     17 C           4.7208    0.9992    0.0000 C.3     1  UNL1        0.1441
     18 C           3.6734   -2.8360    0.0000 C.3     1  UNL1       -0.0471
     19 C           5.6447   -1.2312    0.0000 C.3     1  UNL1        0.1601
     20 C           2.7071    0.3998    0.0000 C.3     1  UNL1        0.1143
     21 C           2.7071   -1.0145    0.0000 C.2     1  UNL1        0.3230
     22 C           5.3995   -3.2555    0.0000 C.3     1  UNL1       -0.0617
     23 C           6.0273   -0.3074    0.0000 C.2     1  UNL1        0.3370
     24 C           3.5381    1.5824    0.0000 C.2     1  UNL1        0.3440
     25 C           3.9864    3.2555    0.0000 C.3     1  UNL1        0.0818
     26 H           4.4947   -3.2074    0.0000 H       1  UNL1        0.0305
     27 H           3.8482    0.0502    0.0000 H       1  UNL1        0.0309
     28 H           4.9748   -0.3074    0.0000 H       1  UNL1        0.0309
     29 H           2.7256   -1.5399    0.0000 H       1  UNL1        0.0293
     30 H           2.6619   -2.3670    0.0000 H       1  UNL1        0.0293
     31 H           4.7208    1.6192    0.0000 H       1  UNL1        0.0769
     32 H           3.1139   -3.1030    0.0000 H       1  UNL1        0.0269
     33 H           3.8802   -3.4204    0.0000 H       1  UNL1        0.0269
     34 H           6.2527   -1.1103    0.0000 H       1  UNL1        0.0717
     35 H           3.1455    0.8382    0.0000 H       1  UNL1        0.0711
     36 H           2.2687    0.8382    0.0000 H       1  UNL1        0.0711
     37 H           4.9960   -3.7262    0.0000 H       1  UNL1        0.0233
     38 H           5.8702   -3.6590    0.0000 H       1  UNL1        0.0233
     39 H           5.8030   -2.7847    0.0000 H       1  UNL1        0.0233
     40 H           2.2704   -1.2947    0.0000 H       1  UNL1        0.2102
     41 H           2.5350    1.5470    0.0000 H       1  UNL1        0.2111
     42 H           6.9506   -1.7779    0.0000 H       1  UNL1        0.2105
     43 H           4.5852    3.4160    0.0000 H       1  UNL1        0.0661
     44 H           3.8259    3.8544    0.0000 H       1  UNL1        0.0661
     45 H           3.3875    3.0950    0.0000 H       1  UNL1        0.0661
@<TRIPOS>BOND
     1     1    11    1
     2     1    40    1
     3     2    17    1
     4     2    23    1
     5     3    20    1
     6     3    21    1
     7     4    15    1
     8     4    41    1
     9     5    19    1
    10     5    42    1
    11     6    21    2
    12     7    24    1
    13     7    25    1
    14     8    23    2
    15     9    24    2
    16    10    11    1
    17    10    13    1
    18    10    14    1
    19    10    19    1
    20    11    12    1
    21    11    16    1
    22    12    15    1
    23    12    20    1
    24    12    21    1
    25    13    18    1
    26    13    22    1
    27    13    26    1
    28    14    17    1
    29    14    27    1
    30    14    28    1
    31    15    17    1
    32    15    24    1
    33    16    18    1
    34    16    29    1
    35    16    30    1
    36    17    31    1
    37    18    32    1
    38    18    33    1
    39    19    23    1
    40    19    34    1
    41    20    35    1
    42    20    36    1
    43    22    37    1
    44    22    38    1
    45    22    39    1
    46    25    43    1
    47    25    44    1
    48    25    45    1
