@<TRIPOS>MOLECULE
IMPHY017910
 6 5 0 0 0
SMALL
GASTEIGER

@<TRIPOS>ATOM
      1 C           3.4030   -0.2500    0.0000 C.1     1  UNL1       -0.0185
      2 C           4.2690    0.2500    0.0000 C.1     1  UNL1       -0.0185
      3 C           2.5369   -0.7500    0.0000 C.1     1  UNL1       -0.1053
      4 C           5.1350    0.7500    0.0000 C.1     1  UNL1       -0.1053
      5 H           2.0000   -1.0600    0.0000 H       1  UNL1        0.1238
      6 H           5.6720    1.0600    0.0000 H       1  UNL1        0.1238
@<TRIPOS>BOND
     1     1     2    1
     2     1     3    3
     3     2     4    3
     4     3     5    1
     5     4     6    1
