@<TRIPOS>MOLECULE
IMPHY016420
 21 21 0 0 0
SMALL
GASTEIGER

@<TRIPOS>ATOM
      1 O           3.7320   -2.0950    0.0000 O.3     1  UNL1       -0.5065
      2 O           2.8660    2.4050    0.0000 O.2     1  UNL1       -0.2924
      3 C           2.8660   -0.5950    0.0000 C.ar    1  UNL1       -0.0084
      4 C           3.7320    0.9050    0.0000 C.ar    1  UNL1        0.0176
      5 C           2.8660    0.4050    0.0000 C.ar    1  UNL1       -0.0449
      6 C           3.7320   -1.0950    0.0000 C.ar    1  UNL1        0.1198
      7 C           4.5981    0.4050    0.0000 C.ar    1  UNL1       -0.0478
      8 C           4.5981   -0.5950    0.0000 C.ar    1  UNL1       -0.0193
      9 C           2.0000   -1.0950    0.0000 C.3     1  UNL1       -0.0362
     10 C           3.7320    1.9050    0.0000 C.2     1  UNL1        0.1601
     11 C           4.5981    2.4050    0.0000 C.3     1  UNL1       -0.0014
     12 H           2.3291    0.7150    0.0000 H       1  UNL1        0.0628
     13 H           5.1350    0.7150    0.0000 H       1  UNL1        0.0626
     14 H           5.1350   -0.9050    0.0000 H       1  UNL1        0.0654
     15 H           1.6900   -0.5581    0.0000 H       1  UNL1        0.0279
     16 H           1.4631   -1.4050    0.0000 H       1  UNL1        0.0279
     17 H           2.3100   -1.6319    0.0000 H       1  UNL1        0.0279
     18 H           4.9081    1.8681    0.0000 H       1  UNL1        0.0309
     19 H           5.1350    2.7150    0.0000 H       1  UNL1        0.0309
     20 H           4.2881    2.9419    0.0000 H       1  UNL1        0.0309
     21 H           4.2690   -2.4050    0.0000 H       1  UNL1        0.2921
@<TRIPOS>BOND
     1     1     6    1
     2     1    21    1
     3     2    10    2
     4     3     5   ar
     5     3     6   ar
     6     3     9    1
     7     4     5   ar
     8     4     7   ar
     9     4    10    1
    10     5    12    1
    11     6     8   ar
    12     7     8   ar
    13     7    13    1
    14     8    14    1
    15     9    15    1
    16     9    16    1
    17     9    17    1
    18    10    11    1
    19    11    18    1
    20    11    19    1
    21    11    20    1
