@<TRIPOS>MOLECULE
IMPHY005217
 43 48 0 0 0
SMALL
GASTEIGER

@<TRIPOS>ATOM
      1 O           9.2572    1.0647    0.0000 O.3     1  UNL1       -0.3581
      2 O           6.6753   -1.2310    0.0000 O.3     1  UNL1       -0.3676
      3 O           5.2266    1.7341    0.0000 O.2     1  UNL1       -0.2934
      4 O          11.0865   -0.1260    0.0000 O.3     1  UNL1       -0.4526
      5 O          11.0865   -1.7355    0.0000 O.3     1  UNL1       -0.4526
      6 O           2.8516   -1.5615    0.0000 O.3     1  UNL1       -0.4526
      7 O           2.2228   -0.0800    0.0000 O.3     1  UNL1       -0.4526
      8 C           7.4082    1.3013    0.0000 C.3     1  UNL1        0.0745
      9 C           7.9082    0.4353    0.0000 C.3     1  UNL1        0.1754
     10 C           6.1905   -0.3564    0.0000 C.3     1  UNL1        0.0956
     11 C           6.1925    1.4753    0.0000 C.2     1  UNL1        0.1796
     12 C           8.7572    1.9307    0.0000 C.3     1  UNL1        0.0618
     13 C           7.6570   -1.0403    0.0000 C.3     1  UNL1        0.0886
     14 C           8.4082   -0.4307    0.0000 C.ar    1  UNL1       -0.0028
     15 C           5.1979   -0.2345    0.0000 C.ar    1  UNL1       -0.0145
     16 C           9.2742    0.0693    0.0000 C.ar    1  UNL1       -0.0097
     17 C           8.4082   -1.4307    0.0000 C.ar    1  UNL1       -0.0517
     18 C           4.5961   -1.0332    0.0000 C.ar    1  UNL1       -0.0105
     19 C           4.8072    0.6860    0.0000 C.ar    1  UNL1       -0.0524
     20 C          10.1403   -0.4307    0.0000 C.ar    1  UNL1        0.1666
     21 C           9.2742   -1.9307    0.0000 C.ar    1  UNL1       -0.0158
     22 C           3.6036   -0.9113    0.0000 C.ar    1  UNL1        0.1666
     23 C          10.1403   -1.4307    0.0000 C.ar    1  UNL1        0.1662
     24 C           3.8147    0.8079    0.0000 C.ar    1  UNL1       -0.0158
     25 C           3.2129    0.0093    0.0000 C.ar    1  UNL1        0.1662
     26 C          11.6701   -0.9307    0.0000 C.3     1  UNL1        0.2332
     27 C           2.0000   -1.0488    0.0000 C.3     1  UNL1        0.2332
     28 H           6.9832    2.0374    0.0000 H       1  UNL1        0.0430
     29 H           5.8438   -0.8704    0.0000 H       1  UNL1        0.0654
     30 H           9.3029    2.2250    0.0000 H       1  UNL1        0.0568
     31 H           8.4789    2.4847    0.0000 H       1  UNL1        0.0568
     32 H           7.7014   -1.6587    0.0000 H       1  UNL1        0.0597
     33 H           8.2762   -1.0703    0.0000 H       1  UNL1        0.0597
     34 H           9.2742    0.6893    0.0000 H       1  UNL1        0.0659
     35 H           7.8713   -1.7407    0.0000 H       1  UNL1        0.0622
     36 H           4.8384   -1.6039    0.0000 H       1  UNL1        0.0659
     37 H           5.1804    1.1812    0.0000 H       1  UNL1        0.0622
     38 H           9.2742   -2.5507    0.0000 H       1  UNL1        0.0655
     39 H           3.5724    1.3786    0.0000 H       1  UNL1        0.0655
     40 H          12.1310   -1.3455    0.0000 H       1  UNL1        0.1166
     41 H          12.1310   -0.5160    0.0000 H       1  UNL1        0.1166
     42 H           1.4137   -0.8471    0.0000 H       1  UNL1        0.1166
     43 H           1.7378   -1.6106    0.0000 H       1  UNL1        0.1166
@<TRIPOS>BOND
     1     1     9    1
     2     1    12    1
     3     2    10    1
     4     2    13    1
     5     3    11    2
     6     4    20    1
     7     4    26    1
     8     5    23    1
     9     5    26    1
    10     6    22    1
    11     6    27    1
    12     7    25    1
    13     7    27    1
    14     8    10    1
    15     8    11    1
    16     8    12    1
    17     8    28    1
    18     9    11    1
    19     9    13    1
    20     9    14    1
    21    10    15    1
    22    10    29    1
    23    12    30    1
    24    12    31    1
    25    13    32    1
    26    13    33    1
    27    14    16   ar
    28    14    17   ar
    29    15    18   ar
    30    15    19   ar
    31    16    20   ar
    32    16    34    1
    33    17    21   ar
    34    17    35    1
    35    18    22   ar
    36    18    36    1
    37    19    24   ar
    38    19    37    1
    39    20    23   ar
    40    21    23   ar
    41    21    38    1
    42    22    25   ar
    43    24    25   ar
    44    24    39    1
    45    26    40    1
    46    26    41    1
    47    27    42    1
    48    27    43    1
