@<TRIPOS>MOLECULE
IMPHY013410
 73 77 0 0 0
SMALL
GASTEIGER

@<TRIPOS>ATOM
      1 O           5.1343    2.7816    0.0000 O.3     1  UNL1       -0.3609
      2 O           9.5065   -2.7837    0.0000 O.3     1  UNL1       -0.3313
      3 O           6.8740    4.7749    0.0000 O.3     1  UNL1       -0.3862
      4 O           5.1458    5.7816    0.0000 O.3     1  UNL1       -0.3865
      5 O           3.4099    4.7883    0.0000 O.3     1  UNL1       -0.3865
      6 O          11.2386   -2.7837    0.0000 O.3     1  UNL1       -0.4572
      7 O           9.5065   -5.7837    0.0000 O.3     1  UNL1       -0.3864
      8 O           7.7745   -4.7837    0.0000 O.3     1  UNL1       -0.3865
      9 O          11.2386   -4.7837    0.0000 O.3     1  UNL1       -0.3829
     10 O           2.5381    3.2916    0.0000 O.3     1  UNL1       -0.3924
     11 O           5.9945    1.2783    0.0000 O.3     1  UNL1       -0.5054
     12 O           9.5025    1.2579    0.0000 O.2     1  UNL1       -0.4544
     13 O           6.9085   -3.2837    0.0000 O.3     1  UNL1       -0.3924
     14 O           7.7381    4.2716    0.0000 O.3     1  UNL1       -0.5062
     15 O           6.8328   -0.2564    0.0000 O.2     1  UNL1       -0.2869
     16 O          12.9706   -1.7837    0.0000 O.3     1  UNL1       -0.5033
     17 C           6.0061    4.2783    0.0000 C.3     1  UNL1        0.1139
     18 C           5.1420    4.7816    0.0000 C.3     1  UNL1        0.1121
     19 C           6.0022    3.2783    0.0000 C.3     1  UNL1        0.1193
     20 C           4.2740    4.2850    0.0000 C.3     1  UNL1        0.1117
     21 C           4.2702    3.2850    0.0000 C.3     1  UNL1        0.1108
     22 C           9.5065   -4.7837    0.0000 C.3     1  UNL1        0.1152
     23 C           8.6405   -4.2837    0.0000 C.3     1  UNL1        0.1120
     24 C           6.8663    2.7750    0.0000 C.ar    1  UNL1        0.0673
     25 C          10.3726   -4.2837    0.0000 C.3     1  UNL1        0.1454
     26 C           8.6405   -3.2837    0.0000 C.3     1  UNL1        0.1140
     27 C          10.3726   -3.2837    0.0000 C.3     1  UNL1        0.2310
     28 C           3.4022    2.7883    0.0000 C.3     1  UNL1        0.0729
     29 C           6.8624    1.7750    0.0000 C.ar    1  UNL1        0.1404
     30 C           7.7745   -2.7837    0.0000 C.3     1  UNL1        0.0731
     31 C           7.7342    3.2716    0.0000 C.ar    1  UNL1        0.1296
     32 C           7.7265    1.2716    0.0000 C.ar    1  UNL1        0.1058
     33 C           8.5983    2.7683    0.0000 C.ar    1  UNL1        0.0235
     34 C           8.5945    1.7683    0.0000 C.ar    1  UNL1        0.1463
     35 C          11.2386   -1.7837    0.0000 C.ar    1  UNL1        0.1658
     36 C           7.7065    0.2302    0.0000 C.ar    1  UNL1        0.1966
     37 C           9.5065    0.2163    0.0000 C.ar    1  UNL1        0.1393
     38 C          10.3726   -0.2837    0.0000 C.ar    1  UNL1        0.0211
     39 C           8.6024   -0.3010    0.0000 C.ar    1  UNL1        0.0288
     40 C          10.3726   -1.2837    0.0000 C.ar    1  UNL1       -0.0055
     41 C          12.1046   -1.2837    0.0000 C.ar    1  UNL1        0.1586
     42 C          11.2386    0.2163    0.0000 C.ar    1  UNL1       -0.0474
     43 C          12.1046   -0.2837    0.0000 C.ar    1  UNL1       -0.0159
     44 H           6.5418    3.9662    0.0000 H       1  UNL1        0.0649
     45 H           5.6801    5.0896    0.0000 H       1  UNL1        0.0647
     46 H           5.9989    2.4283    0.0000 H       1  UNL1        0.0676
     47 H           4.2764    4.9050    0.0000 H       1  UNL1        0.0647
     48 H           4.2678    2.6650    0.0000 H       1  UNL1        0.0646
     49 H           8.9696   -5.0937    0.0000 H       1  UNL1        0.0648
     50 H           8.1036   -3.9737    0.0000 H       1  UNL1        0.0647
     51 H          10.3726   -4.9037    0.0000 H       1  UNL1        0.0683
     52 H           8.6405   -2.6637    0.0000 H       1  UNL1        0.0647
     53 H          10.3726   -2.6637    0.0000 H       1  UNL1        0.1084
     54 H           3.0019    2.3149    0.0000 H       1  UNL1        0.0584
     55 H           3.7989    2.3118    0.0000 H       1  UNL1        0.0584
     56 H           6.8764    5.3949    0.0000 H       1  UNL1        0.2100
     57 H           4.6101    6.0937    0.0000 H       1  UNL1        0.2100
     58 H           8.1730   -2.3087    0.0000 H       1  UNL1        0.0584
     59 H           7.3760   -2.3087    0.0000 H       1  UNL1        0.0584
     60 H           3.4123    5.4083    0.0000 H       1  UNL1        0.2100
     61 H          10.0435   -6.0937    0.0000 H       1  UNL1        0.2100
     62 H           9.1365    3.0762    0.0000 H       1  UNL1        0.0691
     63 H           7.7745   -5.4037    0.0000 H       1  UNL1        0.2100
     64 H          11.7755   -4.4737    0.0000 H       1  UNL1        0.2102
     65 H           2.0000    2.9837    0.0000 H       1  UNL1        0.2095
     66 H           5.9921    0.6583    0.0000 H       1  UNL1        0.2922
     67 H           6.3715   -2.9737    0.0000 H       1  UNL1        0.2095
     68 H           8.2762    4.5795    0.0000 H       1  UNL1        0.2922
     69 H           8.5977   -0.9210    0.0000 H       1  UNL1        0.0693
     70 H           9.8356   -1.5937    0.0000 H       1  UNL1        0.0662
     71 H          11.2386    0.8363    0.0000 H       1  UNL1        0.0626
     72 H          12.6415    0.0263    0.0000 H       1  UNL1        0.0655
     73 H          13.5076   -1.4737    0.0000 H       1  UNL1        0.2923
@<TRIPOS>BOND
     1     1    19    1
     2     1    21    1
     3     2    26    1
     4     2    27    1
     5     3    17    1
     6     3    56    1
     7    18     4    1
     8     4    57    1
     9    20     5    1
    10     5    60    1
    11    27     6    1
    12     6    35    1
    13     7    22    1
    14     7    61    1
    15    23     8    1
    16     8    63    1
    17     9    25    1
    18     9    64    1
    19    10    28    1
    20    10    65    1
    21    11    29    1
    22    11    66    1
    23    12    34   ar
    24    12    37   ar
    25    13    30    1
    26    13    67    1
    27    14    31    1
    28    14    68    1
    29    15    36    2
    30    16    41    1
    31    16    73    1
    32    17    18    1
    33    17    19    1
    34    17    44    1
    35    18    20    1
    36    18    45    1
    37    19    24    1
    38    19    46    1
    39    20    21    1
    40    20    47    1
    41    21    28    1
    42    21    48    1
    43    22    23    1
    44    22    25    1
    45    22    49    1
    46    23    26    1
    47    23    50    1
    48    24    29   ar
    49    24    31   ar
    50    25    27    1
    51    25    51    1
    52    26    30    1
    53    26    52    1
    54    27    53    1
    55    28    54    1
    56    28    55    1
    57    29    32   ar
    58    30    58    1
    59    30    59    1
    60    31    33   ar
    61    32    34   ar
    62    32    36   ar
    63    33    34   ar
    64    33    62    1
    65    35    40   ar
    66    35    41   ar
    67    36    39   ar
    68    37    38    1
    69    37    39   ar
    70    38    40   ar
    71    38    42   ar
    72    39    69    1
    73    40    70    1
    74    41    43   ar
    75    42    43   ar
    76    42    71    1
    77    43    72    1
