@<TRIPOS>MOLECULE
IMPHY013549
 107 106 0 0 0
SMALL
GASTEIGER

@<TRIPOS>ATOM
      1 O           8.0622   -1.0950    0.0000 O.3     1  UNL1       -0.3918
      2 O          26.2487    1.4050    0.0000 O.2     1  UNL1       -0.2974
      3 C          12.3923    0.4050    0.0000 C.3     1  UNL1       -0.0531
      4 C          11.5263   -0.0950    0.0000 C.3     1  UNL1       -0.0531
      5 C          13.2583   -0.0950    0.0000 C.3     1  UNL1       -0.0531
      6 C          10.6603    0.4050    0.0000 C.3     1  UNL1       -0.0530
      7 C          14.1244    0.4050    0.0000 C.3     1  UNL1       -0.0531
      8 C           9.7942   -0.0950    0.0000 C.3     1  UNL1       -0.0507
      9 C          14.9904   -0.0950    0.0000 C.3     1  UNL1       -0.0531
     10 C           8.9282    0.4050    0.0000 C.3     1  UNL1       -0.0269
     11 C          15.8564    0.4050    0.0000 C.3     1  UNL1       -0.0531
     12 C          16.7224   -0.0950    0.0000 C.3     1  UNL1       -0.0531
     13 C           8.0622   -0.0950    0.0000 C.3     1  UNL1        0.0553
     14 C          17.5885    0.4050    0.0000 C.3     1  UNL1       -0.0531
     15 C          18.4545   -0.0950    0.0000 C.3     1  UNL1       -0.0531
     16 C          19.3205    0.4050    0.0000 C.3     1  UNL1       -0.0531
     17 C           7.1962    0.4050    0.0000 C.3     1  UNL1       -0.0269
     18 C          20.1865   -0.0950    0.0000 C.3     1  UNL1       -0.0531
     19 C          21.0526    0.4050    0.0000 C.3     1  UNL1       -0.0531
     20 C           6.3301   -0.0950    0.0000 C.3     1  UNL1       -0.0507
     21 C          21.9186   -0.0950    0.0000 C.3     1  UNL1       -0.0531
     22 C           5.4641    0.4050    0.0000 C.3     1  UNL1       -0.0530
     23 C          22.7846    0.4050    0.0000 C.3     1  UNL1       -0.0530
     24 C          23.6506   -0.0950    0.0000 C.3     1  UNL1       -0.0527
     25 C           4.5981   -0.0950    0.0000 C.3     1  UNL1       -0.0531
     26 C          24.5167    0.4050    0.0000 C.3     1  UNL1       -0.0464
     27 C           3.7320    0.4050    0.0000 C.3     1  UNL1       -0.0533
     28 C          25.3827   -0.0950    0.0000 C.3     1  UNL1        0.0058
     29 C           2.8660   -0.0950    0.0000 C.3     1  UNL1       -0.0559
     30 C          26.2487    0.4050    0.0000 C.2     1  UNL1        0.1334
     31 C          27.1147   -0.0950    0.0000 C.3     1  UNL1        0.0058
     32 C          27.9808    0.4050    0.0000 C.3     1  UNL1       -0.0464
     33 C          28.8468   -0.0950    0.0000 C.3     1  UNL1       -0.0527
     34 C           2.0000    0.4050    0.0000 C.3     1  UNL1       -0.0653
     35 C          29.7128    0.4050    0.0000 C.3     1  UNL1       -0.0533
     36 C          30.5788   -0.0950    0.0000 C.3     1  UNL1       -0.0559
     37 C          31.4449    0.4050    0.0000 C.3     1  UNL1       -0.0653
     38 H          12.7908    0.8799    0.0000 H       1  UNL1        0.0265
     39 H          11.9938    0.8799    0.0000 H       1  UNL1        0.0265
     40 H          11.1278   -0.5699    0.0000 H       1  UNL1        0.0265
     41 H          11.9248   -0.5699    0.0000 H       1  UNL1        0.0265
     42 H          12.8598   -0.5699    0.0000 H       1  UNL1        0.0265
     43 H          13.6569   -0.5699    0.0000 H       1  UNL1        0.0265
     44 H          11.0588    0.8799    0.0000 H       1  UNL1        0.0265
     45 H          10.2617    0.8799    0.0000 H       1  UNL1        0.0265
     46 H          14.5229    0.8799    0.0000 H       1  UNL1        0.0265
     47 H          13.7258    0.8799    0.0000 H       1  UNL1        0.0265
     48 H           9.3957   -0.5699    0.0000 H       1  UNL1        0.0266
     49 H          10.1928   -0.5699    0.0000 H       1  UNL1        0.0266
     50 H          14.5919   -0.5699    0.0000 H       1  UNL1        0.0265
     51 H          15.3889   -0.5699    0.0000 H       1  UNL1        0.0265
     52 H           9.3267    0.8799    0.0000 H       1  UNL1        0.0290
     53 H           8.5297    0.8799    0.0000 H       1  UNL1        0.0290
     54 H          16.2549    0.8799    0.0000 H       1  UNL1        0.0265
     55 H          15.4579    0.8799    0.0000 H       1  UNL1        0.0265
     56 H          16.3239   -0.5699    0.0000 H       1  UNL1        0.0265
     57 H          17.1210   -0.5699    0.0000 H       1  UNL1        0.0265
     58 H           7.5252   -0.4050    0.0000 H       1  UNL1        0.0593
     59 H          17.9870    0.8799    0.0000 H       1  UNL1        0.0265
     60 H          17.1899    0.8799    0.0000 H       1  UNL1        0.0265
     61 H          18.0560   -0.5699    0.0000 H       1  UNL1        0.0265
     62 H          18.8530   -0.5699    0.0000 H       1  UNL1        0.0265
     63 H          19.7190    0.8799    0.0000 H       1  UNL1        0.0265
     64 H          18.9220    0.8799    0.0000 H       1  UNL1        0.0265
     65 H           7.5947    0.8799    0.0000 H       1  UNL1        0.0290
     66 H           6.7976    0.8799    0.0000 H       1  UNL1        0.0290
     67 H          19.7880   -0.5699    0.0000 H       1  UNL1        0.0265
     68 H          20.5851   -0.5699    0.0000 H       1  UNL1        0.0265
     69 H          21.4511    0.8799    0.0000 H       1  UNL1        0.0265
     70 H          20.6540    0.8799    0.0000 H       1  UNL1        0.0265
     71 H           5.9316   -0.5699    0.0000 H       1  UNL1        0.0266
     72 H           6.7287   -0.5699    0.0000 H       1  UNL1        0.0266
     73 H          21.5201   -0.5699    0.0000 H       1  UNL1        0.0265
     74 H          22.3171   -0.5699    0.0000 H       1  UNL1        0.0265
     75 H           5.8626    0.8799    0.0000 H       1  UNL1        0.0265
     76 H           5.0656    0.8799    0.0000 H       1  UNL1        0.0265
     77 H          23.1831    0.8799    0.0000 H       1  UNL1        0.0265
     78 H          22.3861    0.8799    0.0000 H       1  UNL1        0.0265
     79 H          23.2521   -0.5699    0.0000 H       1  UNL1        0.0265
     80 H          24.0492   -0.5699    0.0000 H       1  UNL1        0.0265
     81 H           4.1996   -0.5699    0.0000 H       1  UNL1        0.0265
     82 H           4.9966   -0.5699    0.0000 H       1  UNL1        0.0265
     83 H          24.9152    0.8799    0.0000 H       1  UNL1        0.0269
     84 H          24.1181    0.8799    0.0000 H       1  UNL1        0.0269
     85 H           4.1306    0.8799    0.0000 H       1  UNL1        0.0265
     86 H           3.3335    0.8799    0.0000 H       1  UNL1        0.0265
     87 H          24.9842   -0.5699    0.0000 H       1  UNL1        0.0342
     88 H          25.7812   -0.5699    0.0000 H       1  UNL1        0.0342
     89 H           7.5252   -1.4050    0.0000 H       1  UNL1        0.2098
     90 H           2.4675   -0.5699    0.0000 H       1  UNL1        0.0263
     91 H           3.2646   -0.5699    0.0000 H       1  UNL1        0.0263
     92 H          26.7162   -0.5699    0.0000 H       1  UNL1        0.0342
     93 H          27.5133   -0.5699    0.0000 H       1  UNL1        0.0342
     94 H          28.3793    0.8799    0.0000 H       1  UNL1        0.0269
     95 H          27.5822    0.8799    0.0000 H       1  UNL1        0.0269
     96 H          28.4483   -0.5699    0.0000 H       1  UNL1        0.0265
     97 H          29.2453   -0.5699    0.0000 H       1  UNL1        0.0265
     98 H          30.1113    0.8799    0.0000 H       1  UNL1        0.0265
     99 H          29.3143    0.8799    0.0000 H       1  UNL1        0.0265
    100 H           2.3100    0.9419    0.0000 H       1  UNL1        0.0230
    101 H           1.4631    0.7150    0.0000 H       1  UNL1        0.0230
    102 H           1.6900   -0.1319    0.0000 H       1  UNL1        0.0230
    103 H          30.1803   -0.5699    0.0000 H       1  UNL1        0.0263
    104 H          30.9774   -0.5699    0.0000 H       1  UNL1        0.0263
    105 H          31.7549   -0.1319    0.0000 H       1  UNL1        0.0230
    106 H          31.9818    0.7150    0.0000 H       1  UNL1        0.0230
    107 H          31.1349    0.9419    0.0000 H       1  UNL1        0.0230
@<TRIPOS>BOND
     1     1    13    1
     2     1    89    1
     3     2    30    2
     4     3     4    1
     5     3     5    1
     6     3    38    1
     7     3    39    1
     8     4     6    1
     9     4    40    1
    10     4    41    1
    11     5     7    1
    12     5    42    1
    13     5    43    1
    14     6     8    1
    15     6    44    1
    16     6    45    1
    17     7     9    1
    18     7    46    1
    19     7    47    1
    20     8    10    1
    21     8    48    1
    22     8    49    1
    23     9    11    1
    24     9    50    1
    25     9    51    1
    26    10    13    1
    27    10    52    1
    28    10    53    1
    29    11    12    1
    30    11    54    1
    31    11    55    1
    32    12    14    1
    33    12    56    1
    34    12    57    1
    35    13    17    1
    36    13    58    1
    37    14    15    1
    38    14    59    1
    39    14    60    1
    40    15    16    1
    41    15    61    1
    42    15    62    1
    43    16    18    1
    44    16    63    1
    45    16    64    1
    46    17    20    1
    47    17    65    1
    48    17    66    1
    49    18    19    1
    50    18    67    1
    51    18    68    1
    52    19    21    1
    53    19    69    1
    54    19    70    1
    55    20    22    1
    56    20    71    1
    57    20    72    1
    58    21    23    1
    59    21    73    1
    60    21    74    1
    61    22    25    1
    62    22    75    1
    63    22    76    1
    64    23    24    1
    65    23    77    1
    66    23    78    1
    67    24    26    1
    68    24    79    1
    69    24    80    1
    70    25    27    1
    71    25    81    1
    72    25    82    1
    73    26    28    1
    74    26    83    1
    75    26    84    1
    76    27    29    1
    77    27    85    1
    78    27    86    1
    79    28    30    1
    80    28    87    1
    81    28    88    1
    82    29    34    1
    83    29    90    1
    84    29    91    1
    85    30    31    1
    86    31    32    1
    87    31    92    1
    88    31    93    1
    89    32    33    1
    90    32    94    1
    91    32    95    1
    92    33    35    1
    93    33    96    1
    94    33    97    1
    95    34   100    1
    96    34   101    1
    97    34   102    1
    98    35    36    1
    99    35    98    1
   100    35    99    1
   101    36    37    1
   102    36   103    1
   103    36   104    1
   104    37   105    1
   105    37   106    1
   106    37   107    1
