@<TRIPOS>MOLECULE
IMPHY000574
 142 150 0 0 0
SMALL
GASTEIGER

@<TRIPOS>ATOM
      1 O          10.8882    4.0403    0.0000 O.3     1  UNL1       -0.3447
      2 O          10.8378    5.1213    0.0000 O.3     1  UNL1       -0.3198
      3 O           9.4651   -4.2038    0.0000 O.3     1  UNL1       -0.3451
      4 O          11.5375    6.7057    0.0000 O.3     1  UNL1       -0.3666
      5 O           7.7331   -4.2038    0.0000 O.3     1  UNL1       -0.3405
      6 O           9.4651   -6.2038    0.0000 O.3     1  UNL1       -0.3378
      7 O           7.7331   -7.2038    0.0000 O.3     1  UNL1       -0.3864
      8 O           6.0010   -6.2038    0.0000 O.3     1  UNL1       -0.3401
      9 O          10.3312   -4.7038    0.0000 O.3     1  UNL1       -0.3420
     10 O           6.0010   -3.2038    0.0000 O.3     1  UNL1       -0.3924
     11 O           5.1350   -4.7038    0.0000 O.3     1  UNL1       -0.3431
     12 O          11.1972   -7.2038    0.0000 O.3     1  UNL1       -0.3841
     13 O          12.9292   -6.2038    0.0000 O.3     1  UNL1       -0.3853
     14 O          12.9292   -4.2038    0.0000 O.3     1  UNL1       -0.4556
     15 O           4.2690   -7.2038    0.0000 O.3     1  UNL1       -0.3841
     16 O           2.5369   -6.2038    0.0000 O.3     1  UNL1       -0.3864
     17 O           2.5369   -4.2038    0.0000 O.3     1  UNL1       -0.3866
     18 O          13.7953   -5.7038    0.0000 O.2     1  UNL1       -0.2502
     19 O          16.3933   -4.2038    0.0000 O.3     1  UNL1       -0.4802
     20 O          15.5273   -5.7038    0.0000 O.2     1  UNL1       -0.2504
     21 C           9.4944    1.9931    0.0000 C.3     1  UNL1       -0.0233
     22 C          10.3623    1.4965    0.0000 C.3     1  UNL1       -0.0295
     23 C           9.6999    2.9657    0.0000 C.3     1  UNL1       -0.0015
     24 C          10.3662    0.4965    0.0000 C.3     1  UNL1       -0.0306
     25 C          10.6882    3.0726    0.0000 C.3     1  UNL1        0.0660
     26 C           9.5021   -0.0069    0.0000 C.3     1  UNL1       -0.0285
     27 C          11.0968    2.1664    0.0000 C.3     1  UNL1       -0.0226
     28 C           8.6303    1.4898    0.0000 C.3     1  UNL1       -0.0467
     29 C           9.2976    3.8683    0.0000 C.3     1  UNL1        0.0161
     30 C           8.6342    0.4898    0.0000 C.3     1  UNL1       -0.0486
     31 C           9.4901   -1.0484    0.0000 C.3     1  UNL1       -0.0078
     32 C          10.0305    4.5311    0.0000 C.3     1  UNL1        0.1762
     33 C           8.6264    2.4898    0.0000 C.3     1  UNL1       -0.0590
     34 C          11.2781   -0.0069    0.0000 C.3     1  UNL1       -0.0311
     35 C          10.3901   -1.5727    0.0000 C.2     1  UNL1       -0.0648
     36 C           8.5402   -1.5727    0.0000 C.3     1  UNL1       -0.0413
     37 C           8.3192    4.0750    0.0000 C.3     1  UNL1       -0.0572
     38 C           9.1158    4.9351    0.0000 C.3     1  UNL1        0.0022
     39 C          11.2902   -1.0484    0.0000 C.2     1  UNL1       -0.0839
     40 C           8.6260   -0.5451    0.0000 C.3     1  UNL1       -0.0556
     41 C          10.4027   -2.6576    0.0000 C.3     1  UNL1       -0.0047
     42 C           8.5276   -2.6576    0.0000 C.3     1  UNL1       -0.0254
     43 C           9.4651   -3.2038    0.0000 C.3     1  UNL1        0.0655
     44 C           9.0083    5.9293    0.0000 C.3     1  UNL1       -0.0410
     45 C          10.7303    6.1155    0.0000 C.3     1  UNL1        0.1620
     46 C           9.8155    6.5195    0.0000 C.3     1  UNL1        0.0074
     47 C           9.7080    7.5138    0.0000 C.3     1  UNL1       -0.0578
     48 C           8.5991   -4.7038    0.0000 C.3     1  UNL1        0.1886
     49 C           8.5991   -5.7038    0.0000 C.3     1  UNL1        0.1406
     50 C           7.7331   -6.2038    0.0000 C.3     1  UNL1        0.1148
     51 C           6.8671   -4.7038    0.0000 C.3     1  UNL1        0.1134
     52 C           6.8671   -5.7038    0.0000 C.3     1  UNL1        0.1184
     53 C           6.0010   -4.2038    0.0000 C.3     1  UNL1        0.0730
     54 C          10.3312   -5.7038    0.0000 C.3     1  UNL1        0.1885
     55 C          11.1972   -6.2038    0.0000 C.3     1  UNL1        0.1352
     56 C           5.1350   -5.7038    0.0000 C.3     1  UNL1        0.1883
     57 C          12.0632   -5.7038    0.0000 C.3     1  UNL1        0.1250
     58 C          11.1972   -4.2038    0.0000 C.3     1  UNL1        0.0984
     59 C           4.2690   -6.2038    0.0000 C.3     1  UNL1        0.1341
     60 C          12.0632   -4.7038    0.0000 C.3     1  UNL1        0.1571
     61 C           3.4030   -5.7038    0.0000 C.3     1  UNL1        0.1140
     62 C           4.2690   -4.2038    0.0000 C.3     1  UNL1        0.0873
     63 C           3.4030   -4.7038    0.0000 C.3     1  UNL1        0.1095
     64 C          11.1972   -3.2038    0.0000 C.3     1  UNL1       -0.0350
     65 C           4.2690   -3.2038    0.0000 C.3     1  UNL1       -0.0361
     66 C          13.7953   -4.7038    0.0000 C.2     1  UNL1        0.3183
     67 C          14.6613   -4.2038    0.0000 C.3     1  UNL1        0.1418
     68 C          15.5273   -4.7038    0.0000 C.2     1  UNL1        0.3155
     69 H          11.1406    1.1548    0.0000 H       1  UNL1        0.0310
     70 H           8.8546    2.8762    0.0000 H       1  UNL1        0.0335
     71 H          11.0974    0.9300    0.0000 H       1  UNL1        0.0310
     72 H          11.5330    3.1658    0.0000 H       1  UNL1        0.0600
     73 H          10.2366   -0.4347    0.0000 H       1  UNL1        0.0312
     74 H          11.4642    1.6670    0.0000 H       1  UNL1        0.0293
     75 H          11.6321    2.4792    0.0000 H       1  UNL1        0.0293
     76 H           8.4160    2.0716    0.0000 H       1  UNL1        0.0271
     77 H           8.0201    1.3798    0.0000 H       1  UNL1        0.0271
     78 H           8.9078    3.3862    0.0000 H       1  UNL1        0.0354
     79 H           8.0232    0.5951    0.0000 H       1  UNL1        0.0268
     80 H           8.4244   -0.0936    0.0000 H       1  UNL1        0.0268
     81 H           8.9344    3.0279    0.0000 H       1  UNL1        0.0235
     82 H           8.0883    2.7977    0.0000 H       1  UNL1        0.0235
     83 H           8.3185    1.9517    0.0000 H       1  UNL1        0.0235
     84 H          11.8902   -0.1059    0.0000 H       1  UNL1        0.0310
     85 H          11.4804    0.5792    0.0000 H       1  UNL1        0.0310
     86 H           8.3379   -0.9866    0.0000 H       1  UNL1        0.0274
     87 H           7.9281   -1.6717    0.0000 H       1  UNL1        0.0274
     88 H           8.4473    4.6816    0.0000 H       1  UNL1        0.0234
     89 H           7.7125    4.2032    0.0000 H       1  UNL1        0.0234
     90 H           8.1910    3.4684    0.0000 H       1  UNL1        0.0234
     91 H           8.4972    4.9765    0.0000 H       1  UNL1        0.0317
     92 H           8.9676    4.3331    0.0000 H       1  UNL1        0.0317
     93 H          11.8295   -1.3543    0.0000 H       1  UNL1        0.0572
     94 H           8.9380   -0.0093    0.0000 H       1  UNL1        0.0238
     95 H           8.0902   -0.2330    0.0000 H       1  UNL1        0.0238
     96 H           8.3139   -1.0808    0.0000 H       1  UNL1        0.0238
     97 H          10.6185   -3.2389    0.0000 H       1  UNL1        0.0335
     98 H          11.0123   -2.5445    0.0000 H       1  UNL1        0.0335
     99 H           7.9180   -2.5445    0.0000 H       1  UNL1        0.0290
    100 H           8.3118   -3.2389    0.0000 H       1  UNL1        0.0290
    101 H          10.0027   -3.5127    0.0000 H       1  UNL1        0.0600
    102 H           8.7348    6.4858    0.0000 H       1  UNL1        0.0271
    103 H           8.4128    5.7567    0.0000 H       1  UNL1        0.0271
    104 H          10.6636    6.7319    0.0000 H       1  UNL1        0.0911
    105 H           9.2484    6.7700    0.0000 H       1  UNL1        0.0347
    106 H          10.3244    7.5804    0.0000 H       1  UNL1        0.0234
    107 H           9.6414    8.1302    0.0000 H       1  UNL1        0.0234
    108 H           9.0916    7.4471    0.0000 H       1  UNL1        0.0234
    109 H          11.4709    7.3222    0.0000 H       1  UNL1        0.2125
    110 H           8.5991   -4.0838    0.0000 H       1  UNL1        0.0938
    111 H           8.5991   -6.3238    0.0000 H       1  UNL1        0.0675
    112 H           7.1962   -6.5138    0.0000 H       1  UNL1        0.0648
    113 H           6.8671   -4.0838    0.0000 H       1  UNL1        0.0647
    114 H           6.3301   -5.3938    0.0000 H       1  UNL1        0.0651
    115 H           5.3905   -4.0961    0.0000 H       1  UNL1        0.0584
    116 H           5.7890   -4.7864    0.0000 H       1  UNL1        0.0584
    117 H           9.7942   -5.3938    0.0000 H       1  UNL1        0.0938
    118 H           7.1962   -7.5138    0.0000 H       1  UNL1        0.2100
    119 H          11.7341   -6.5138    0.0000 H       1  UNL1        0.0671
    120 H           5.1350   -6.3238    0.0000 H       1  UNL1        0.0938
    121 H           5.4641   -2.8938    0.0000 H       1  UNL1        0.2095
    122 H          12.6002   -5.3938    0.0000 H       1  UNL1        0.0659
    123 H          10.6603   -3.8938    0.0000 H       1  UNL1        0.0632
    124 H           3.7320   -6.5138    0.0000 H       1  UNL1        0.0671
    125 H          12.0632   -4.0838    0.0000 H       1  UNL1        0.0787
    126 H           2.8660   -5.3938    0.0000 H       1  UNL1        0.0648
    127 H          11.7341   -7.5138    0.0000 H       1  UNL1        0.2101
    128 H           4.8059   -3.8938    0.0000 H       1  UNL1        0.0621
    129 H           3.4030   -4.0838    0.0000 H       1  UNL1        0.0646
    130 H          11.8172   -3.2038    0.0000 H       1  UNL1        0.0256
    131 H          11.1972   -2.5838    0.0000 H       1  UNL1        0.0256
    132 H          10.5772   -3.2038    0.0000 H       1  UNL1        0.0256
    133 H          12.9292   -6.8238    0.0000 H       1  UNL1        0.2101
    134 H           3.7320   -7.5138    0.0000 H       1  UNL1        0.2101
    135 H           4.8890   -3.2038    0.0000 H       1  UNL1        0.0255
    136 H           4.2690   -2.5838    0.0000 H       1  UNL1        0.0255
    137 H           3.6490   -3.2038    0.0000 H       1  UNL1        0.0255
    138 H           2.0000   -5.8938    0.0000 H       1  UNL1        0.2100
    139 H           2.5369   -3.5838    0.0000 H       1  UNL1        0.2100
    140 H          15.0598   -3.7288    0.0000 H       1  UNL1        0.0493
    141 H          14.2628   -3.7288    0.0000 H       1  UNL1        0.0493
    142 H          16.9303   -4.5138    0.0000 H       1  UNL1        0.2951
@<TRIPOS>BOND
     1     1    25    1
     2    32     1    1
     3     2    32    1
     4     2    45    1
     5    43     3    1
     6    48     3    1
     7    45     4    1
     8     4   109    1
     9     5    48    1
    10     5    51    1
    11    49     6    1
    12    54     6    1
    13    50     7    1
    14     7   118    1
    15    52     8    1
    16    56     8    1
    17     9    54    1
    18     9    58    1
    19    10    53    1
    20    10   121    1
    21    11    56    1
    22    11    62    1
    23    55    12    1
    24    12   127    1
    25    57    13    1
    26    13   133    1
    27    60    14    1
    28    14    66    1
    29    59    15    1
    30    15   134    1
    31    61    16    1
    32    16   138    1
    33    63    17    1
    34    17   139    1
    35    18    66    2
    36    19    68    1
    37    19   142    1
    38    20    68    2
    39    21    22    1
    40    21    23    1
    41    21    28    1
    42    21    33    1
    43    22    24    1
    44    22    27    1
    45    22    69    1
    46    23    25    1
    47    23    29    1
    48    23    70    1
    49    24    26    1
    50    24    34    1
    51    24    71    1
    52    25    27    1
    53    25    72    1
    54    26    30    1
    55    26    31    1
    56    26    73    1
    57    27    74    1
    58    27    75    1
    59    28    30    1
    60    28    76    1
    61    28    77    1
    62    29    32    1
    63    29    37    1
    64    29    78    1
    65    30    79    1
    66    30    80    1
    67    31    35    1
    68    31    36    1
    69    31    40    1
    70    32    38    1
    71    33    81    1
    72    33    82    1
    73    33    83    1
    74    34    39    1
    75    34    84    1
    76    34    85    1
    77    35    39    2
    78    35    41    1
    79    36    42    1
    80    36    86    1
    81    36    87    1
    82    37    88    1
    83    37    89    1
    84    37    90    1
    85    38    44    1
    86    38    91    1
    87    38    92    1
    88    39    93    1
    89    40    94    1
    90    40    95    1
    91    40    96    1
    92    41    43    1
    93    41    97    1
    94    41    98    1
    95    42    43    1
    96    42    99    1
    97    42   100    1
    98    43   101    1
    99    44    46    1
   100    44   102    1
   101    44   103    1
   102    45    46    1
   103    45   104    1
   104    46    47    1
   105    46   105    1
   106    47   106    1
   107    47   107    1
   108    47   108    1
   109    48    49    1
   110    48   110    1
   111    49    50    1
   112    49   111    1
   113    50    52    1
   114    50   112    1
   115    51    52    1
   116    51    53    1
   117    51   113    1
   118    52   114    1
   119    53   115    1
   120    53   116    1
   121    54    55    1
   122    54   117    1
   123    55    57    1
   124    55   119    1
   125    56    59    1
   126    56   120    1
   127    57    60    1
   128    57   122    1
   129    58    60    1
   130    58    64    1
   131    58   123    1
   132    59    61    1
   133    59   124    1
   134    60   125    1
   135    61    63    1
   136    61   126    1
   137    62    63    1
   138    62    65    1
   139    62   128    1
   140    63   129    1
   141    64   130    1
   142    64   131    1
   143    64   132    1
   144    65   135    1
   145    65   136    1
   146    65   137    1
   147    66    67    1
   148    67    68    1
   149    67   140    1
   150    67   141    1
