@<TRIPOS>MOLECULE
IMPHY005484
 26 26 0 0 0
SMALL
GASTEIGER

@<TRIPOS>ATOM
      1 O           4.5981   -2.0000    0.0000 O.3     1  UNL1       -0.4913
      2 O           6.3301   -1.0000    0.0000 O.3     1  UNL1       -0.4914
      3 O           2.8660    1.0000    0.0000 O.3     1  UNL1       -0.4943
      4 O           5.4641    2.5000    0.0000 O.2     1  UNL1       -0.2956
      5 C           4.5981   -1.0000    0.0000 C.ar    1  UNL1        0.1650
      6 C           5.4641   -0.5000    0.0000 C.ar    1  UNL1        0.1624
      7 C           4.5981    1.0000    0.0000 C.ar    1  UNL1        0.0595
      8 C           3.7320    0.5000    0.0000 C.ar    1  UNL1        0.1340
      9 C           3.7320   -0.5000    0.0000 C.ar    1  UNL1        0.0261
     10 C           5.4641    0.5000    0.0000 C.ar    1  UNL1       -0.0026
     11 C           4.5981    2.0000    0.0000 C.2     1  UNL1        0.1538
     12 C           3.7320   -2.5000    0.0000 C.3     1  UNL1        0.0790
     13 C           7.1962   -0.5000    0.0000 C.3     1  UNL1        0.0790
     14 C           2.0000    0.5000    0.0000 C.3     1  UNL1        0.0788
     15 H           3.1951   -0.8100    0.0000 H       1  UNL1        0.0692
     16 H           6.0010    0.8100    0.0000 H       1  UNL1        0.0663
     17 H           4.0611    2.3100    0.0000 H       1  UNL1        0.1083
     18 H           3.4220   -1.9631    0.0000 H       1  UNL1        0.0660
     19 H           3.1951   -2.8100    0.0000 H       1  UNL1        0.0660
     20 H           4.0420   -3.0369    0.0000 H       1  UNL1        0.0660
     21 H           7.5062   -1.0369    0.0000 H       1  UNL1        0.0660
     22 H           7.7331   -0.1900    0.0000 H       1  UNL1        0.0660
     23 H           6.8862    0.0369    0.0000 H       1  UNL1        0.0660
     24 H           1.6900    1.0369    0.0000 H       1  UNL1        0.0660
     25 H           1.4631    0.1900    0.0000 H       1  UNL1        0.0660
     26 H           2.3100   -0.0369    0.0000 H       1  UNL1        0.0660
@<TRIPOS>BOND
     1     1     5    1
     2     1    12    1
     3     2     6    1
     4     2    13    1
     5     3     8    1
     6     3    14    1
     7     4    11    2
     8     5     6   ar
     9     5     9   ar
    10     6    10   ar
    11     7     8   ar
    12     7    10   ar
    13     7    11    1
    14     8     9   ar
    15     9    15    1
    16    10    16    1
    17    11    17    1
    18    12    18    1
    19    12    19    1
    20    12    20    1
    21    13    21    1
    22    13    22    1
    23    13    23    1
    24    14    24    1
    25    14    25    1
    26    14    26    1
