@<TRIPOS>MOLECULE
IMPHY002242
 27 29 0 0 0
SMALL
GASTEIGER

@<TRIPOS>ATOM
      1 O           7.4783   -1.2874    0.0000 O.2     1  UNL1       -0.4525
      2 O           7.4783    0.3221    0.0000 O.2     1  UNL1       -0.4487
      3 O           5.6660    1.5173    0.0000 O.2     1  UNL1       -0.2830
      4 N           3.0000    0.0381    0.0000 N.pl3   1  UNL1       -0.3953
      5 C           3.0000   -1.0035    0.0000 C.3     1  UNL1        0.0942
      6 C           3.9061   -1.5173    0.0000 C.3     1  UNL1        0.0272
      7 C           4.8000   -0.9827    0.0000 C.2     1  UNL1       -0.0216
      8 C           4.8000    0.0173    0.0000 C.2     1  UNL1        0.0862
      9 C           3.9061    0.5520    0.0000 C.2     1  UNL1        0.1189
     10 C           2.0000    0.0420    0.0000 C.3     1  UNL1        0.0797
     11 C           5.6660   -1.4827    0.0000 C.2     1  UNL1       -0.0118
     12 C           5.6660    0.5173    0.0000 C.2     1  UNL1        0.2368
     13 C           6.5320   -0.9827    0.0000 C.2     1  UNL1        0.1704
     14 C           6.5320    0.0173    0.0000 C.2     1  UNL1        0.2134
     15 C           8.0619   -0.4827    0.0000 C.3     1  UNL1        0.2334
     16 H           2.6921    0.5763    0.0000 H       1  UNL1        0.3737
     17 H           2.3891   -0.8974    0.0000 H       1  UNL1        0.0971
     18 H           2.7909   -1.5872    0.0000 H       1  UNL1        0.0971
     19 H           3.5124   -1.9964    0.0000 H       1  UNL1        0.0373
     20 H           4.3107   -1.9871    0.0000 H       1  UNL1        0.0373
     21 H           3.9132    1.1720    0.0000 H       1  UNL1        0.1319
     22 H           2.0024    0.6620    0.0000 H       1  UNL1        0.0931
     23 H           1.3800    0.0444    0.0000 H       1  UNL1        0.0931
     24 H           1.9976   -0.5780    0.0000 H       1  UNL1        0.0931
     25 H           5.6660   -2.1027    0.0000 H       1  UNL1        0.0658
     26 H           8.5228   -0.8974    0.0000 H       1  UNL1        0.1166
     27 H           8.5228   -0.0679    0.0000 H       1  UNL1        0.1166
@<TRIPOS>UNITY_ATOM_ATTR
4 1
charge 1
@<TRIPOS>BOND
     1     1    13    1
     2     1    15    1
     3     2    14    1
     4     2    15    1
     5     3    12    2
     6     4     5    1
     7     4     9    1
     8     4    10    1
     9     4    16    1
    10     5     6    1
    11     5    17    1
    12     5    18    1
    13     6     7    1
    14     6    19    1
    15     6    20    1
    16     7     8    1
    17     7    11    2
    18     8     9    2
    19     8    12    1
    20     9    21    1
    21    10    22    1
    22    10    23    1
    23    10    24    1
    24    11    13    1
    25    11    25    1
    26    12    14    1
    27    13    14    2
    28    15    26    1
    29    15    27    1
