@<TRIPOS>MOLECULE
IMPHY014730
 59 63 0 0 0
SMALL
GASTEIGER

@<TRIPOS>ATOM
      1 O           4.8890   -0.2205    0.0000 O.3     1  UNL1       -0.4582
      2 O          10.5878    1.8651    0.0000 O.2     1  UNL1       -0.2756
      3 O           3.1607   -0.1063    0.0000 O.2     1  UNL1       -0.2456
      4 N           5.1152    2.8404    0.0000 N.3     1  UNL1       -0.2985
      5 N           9.2141    2.9816    0.0000 N.am    1  UNL1       -0.2978
      6 C           7.1653    3.1469    0.0000 C.3     1  UNL1       -0.0091
      7 C           7.4241    4.1128    0.0000 C.3     1  UNL1       -0.0092
      8 C           5.9442    2.2812    0.0000 C.3     1  UNL1        0.0180
      9 C           6.6875    5.0954    0.0000 C.3     1  UNL1       -0.0417
     10 C           8.8557    3.9152    0.0000 C.3     1  UNL1        0.0300
     11 C           5.3908    3.8017    0.0000 C.3     1  UNL1        0.0037
     12 C           8.4369    2.3523    0.0000 C.3     1  UNL1        0.0192
     13 C           5.8876    1.2412    0.0000 C.3     1  UNL1        0.0003
     14 C           9.4987    4.7347    0.0000 C.3     1  UNL1       -0.0336
     15 C           4.1720    2.3983    0.0000 C.3     1  UNL1        0.0025
     16 C           4.9549    0.7773    0.0000 C.3     1  UNL1        0.1060
     17 C           4.0914    1.3598    0.0000 C.3     1  UNL1       -0.0028
     18 C          10.5287    4.5797    0.0000 C.3     1  UNL1       -0.0431
     19 C          10.2403    2.8028    0.0000 C.2     1  UNL1        0.2158
     20 C          10.9020    3.6072    0.0000 C.3     1  UNL1        0.0242
     21 C           3.9919   -0.6623    0.0000 C.2     1  UNL1        0.3322
     22 C           3.9260   -1.6602    0.0000 C.2     1  UNL1        0.0231
     23 C           3.0289   -2.1020    0.0000 C.2     1  UNL1       -0.0478
     24 C           2.9630   -3.0998    0.0000 C.ar    1  UNL1       -0.0248
     25 C           2.0659   -3.5416    0.0000 C.ar    1  UNL1       -0.0546
     26 C           3.7942   -3.6558    0.0000 C.ar    1  UNL1       -0.0546
     27 C           2.0000   -4.5395    0.0000 C.ar    1  UNL1       -0.0612
     28 C           3.7283   -4.6536    0.0000 C.ar    1  UNL1       -0.0612
     29 C           2.8312   -5.0954    0.0000 C.ar    1  UNL1       -0.0617
     30 H           7.6676    3.5104    0.0000 H       1  UNL1        0.0331
     31 H           7.4286    3.4929    0.0000 H       1  UNL1        0.0331
     32 H           6.6489    1.8059    0.0000 H       1  UNL1        0.0467
     33 H           7.0053    5.6278    0.0000 H       1  UNL1        0.0273
     34 H           6.0743    5.1874    0.0000 H       1  UNL1        0.0273
     35 H           8.5511    4.7087    0.0000 H       1  UNL1        0.0503
     36 H           5.3858    4.4217    0.0000 H       1  UNL1        0.0430
     37 H           4.7765    3.8855    0.0000 H       1  UNL1        0.0430
     38 H           8.0524    1.8659    0.0000 H       1  UNL1        0.0468
     39 H           8.8779    1.9164    0.0000 H       1  UNL1        0.0468
     40 H           6.0646    0.6470    0.0000 H       1  UNL1        0.0316
     41 H           6.5033    1.3139    0.0000 H       1  UNL1        0.0316
     42 H           9.6945    5.3229    0.0000 H       1  UNL1        0.0283
     43 H           8.9526    5.0283    0.0000 H       1  UNL1        0.0283
     44 H           4.0088    2.9964    0.0000 H       1  UNL1        0.0428
     45 H           3.5548    2.3399    0.0000 H       1  UNL1        0.0428
     46 H           5.4709    0.4336    0.0000 H       1  UNL1        0.0735
     47 H           3.4906    1.5129    0.0000 H       1  UNL1        0.0313
     48 H           3.8378    0.7941    0.0000 H       1  UNL1        0.0313
     49 H          11.1370    4.6995    0.0000 H       1  UNL1        0.0270
     50 H          10.5147    5.1995    0.0000 H       1  UNL1        0.0270
     51 H          11.3063    3.1372    0.0000 H       1  UNL1        0.0358
     52 H          11.4343    3.9252    0.0000 H       1  UNL1        0.0358
     53 H           4.4414   -2.0049    0.0000 H       1  UNL1        0.0689
     54 H           2.5136   -1.7573    0.0000 H       1  UNL1        0.0626
     55 H           1.5506   -3.1969    0.0000 H       1  UNL1        0.0623
     56 H           4.3504   -3.3819    0.0000 H       1  UNL1        0.0623
     57 H           1.4438   -4.8134    0.0000 H       1  UNL1        0.0618
     58 H           4.2436   -4.9983    0.0000 H       1  UNL1        0.0618
     59 H           2.7903   -5.7141    0.0000 H       1  UNL1        0.0618
@<TRIPOS>BOND
     1     1    16    1
     2     1    21    1
     3     2    19    2
     4     3    21    2
     5     4     8    1
     6     4    11    1
     7     4    15    1
     8     5    10    1
     9     5    12    1
    10     5    19   am
    11     6     8    1
    12     6     9    1
    13     6    12    1
    14     6    30    1
    15     7     9    1
    16     7    10    1
    17     7    11    1
    18     7    31    1
    19     8    13    1
    20     8    32    1
    21     9    33    1
    22     9    34    1
    23    10    14    1
    24    10    35    1
    25    11    36    1
    26    11    37    1
    27    12    38    1
    28    12    39    1
    29    13    16    1
    30    13    40    1
    31    13    41    1
    32    14    18    1
    33    14    42    1
    34    14    43    1
    35    15    17    1
    36    15    44    1
    37    15    45    1
    38    16    17    1
    39    16    46    1
    40    17    47    1
    41    17    48    1
    42    18    20    1
    43    18    49    1
    44    18    50    1
    45    19    20    1
    46    20    51    1
    47    20    52    1
    48    21    22    1
    49    22    23    2
    50    22    53    1
    51    23    24    1
    52    23    54    1
    53    24    25   ar
    54    24    26   ar
    55    25    27   ar
    56    25    55    1
    57    26    28   ar
    58    26    56    1
    59    27    29   ar
    60    27    57    1
    61    28    29   ar
    62    28    58    1
    63    29    59    1
