@<TRIPOS>MOLECULE
IMPHY002054
 21 20 0 0 0
SMALL
GASTEIGER

@<TRIPOS>ATOM
      1 O           5.1350    2.0000    0.0000 O.3     1  UNL1       -0.3798
      2 O           2.5369    0.5000    0.0000 O.3     1  UNL1       -0.4803
      3 O           6.8671    1.0000    0.0000 O.3     1  UNL1       -0.4788
      4 O           3.4030    2.0000    0.0000 O.2     1  UNL1       -0.2506
      5 O           3.4030   -2.0000    0.0000 O.3     1  UNL1       -0.4806
      6 O           6.0010   -0.5000    0.0000 O.2     1  UNL1       -0.2481
      7 O           2.5369   -0.5000    0.0000 O.2     1  UNL1       -0.2510
      8 C           4.2690    0.5000    0.0000 C.3     1  UNL1        0.1024
      9 C           5.1350    1.0000    0.0000 C.3     1  UNL1        0.1647
     10 C           4.2690   -0.5000    0.0000 C.3     1  UNL1        0.0606
     11 C           3.4030    1.0000    0.0000 C.2     1  UNL1        0.3114
     12 C           6.0010    0.5000    0.0000 C.2     1  UNL1        0.3345
     13 C           3.4030   -1.0000    0.0000 C.2     1  UNL1        0.3056
     14 H           4.2690    1.3500    0.0000 H       1  UNL1        0.0450
     15 H           5.8711    1.4250    0.0000 H       1  UNL1        0.0719
     16 H           4.4810   -1.0826    0.0000 H       1  UNL1        0.0386
     17 H           4.8796   -0.3923    0.0000 H       1  UNL1        0.0386
     18 H           5.6720    2.3100    0.0000 H       1  UNL1        0.2105
     19 H           2.0000    0.8100    0.0000 H       1  UNL1        0.2951
     20 H           7.4040    0.6900    0.0000 H       1  UNL1        0.2951
     21 H           2.8660   -2.3100    0.0000 H       1  UNL1        0.2951
@<TRIPOS>BOND
     1     1     9    1
     2     1    18    1
     3     2    11    1
     4     2    19    1
     5     3    12    1
     6     3    20    1
     7     4    11    2
     8     5    13    1
     9     5    21    1
    10     6    12    2
    11     7    13    2
    12     8     9    1
    13     8    10    1
    14     8    11    1
    15     8    14    1
    16     9    12    1
    17     9    15    1
    18    10    13    1
    19    10    16    1
    20    10    17    1
