@<TRIPOS>MOLECULE
IMPHY014348
 46 50 0 0 0
SMALL
GASTEIGER

@<TRIPOS>ATOM
      1 O           7.1377   -2.0358    0.0000 O.3     1  UNL1       -0.3699
      2 O           8.9752   -2.0647    0.0000 O.3     1  UNL1       -0.4910
      3 O           2.6079    0.6952    0.0000 O.3     1  UNL1       -0.4526
      4 O           2.6079    2.3716    0.0000 O.3     1  UNL1       -0.4526
      5 O          10.7866   -1.0189    0.0000 O.3     1  UNL1       -0.4914
      6 N           6.2435   -0.5081    0.0000 N.pl3   1  UNL1       -0.3031
      7 C           6.2596    0.5334    0.0000 C.ar    1  UNL1        0.0473
      8 C           7.1415   -1.0358    0.0000 C.3     1  UNL1        0.1520
      9 C           7.1256    1.0334    0.0000 C.ar    1  UNL1        0.0043
     10 C           8.0436   -0.5150    0.0000 C.ar    1  UNL1        0.0520
     11 C           8.0356    0.5266    0.0000 C.ar    1  UNL1       -0.0051
     12 C           5.3935    1.0334    0.0000 C.ar    1  UNL1        0.0075
     13 C           5.3935    2.0334    0.0000 C.ar    1  UNL1       -0.0124
     14 C           7.1256    2.0334    0.0000 C.ar    1  UNL1       -0.0517
     15 C           8.9790   -1.0648    0.0000 C.ar    1  UNL1        0.1693
     16 C           5.3717   -0.9980    0.0000 C.3     1  UNL1        0.0034
     17 C           6.2596    2.5334    0.0000 C.ar    1  UNL1       -0.0532
     18 C           8.9624    1.0906    0.0000 C.ar    1  UNL1       -0.0499
     19 C           4.4996    0.4988    0.0000 C.ar    1  UNL1       -0.0066
     20 C           4.4996    2.5681    0.0000 C.ar    1  UNL1       -0.0084
     21 C           3.5935    1.0126    0.0000 C.ar    1  UNL1        0.1669
     22 C           9.9187   -0.5223    0.0000 C.ar    1  UNL1        0.1619
     23 C           3.5935    2.0542    0.0000 C.ar    1  UNL1        0.1668
     24 C           9.9103    0.5627    0.0000 C.ar    1  UNL1       -0.0157
     25 C           2.0000    1.5334    0.0000 C.3     1  UNL1        0.2332
     26 C           9.8393   -2.5681    0.0000 C.3     1  UNL1        0.0790
     27 C          11.6507   -0.5156    0.0000 C.3     1  UNL1        0.0790
     28 H           7.6779   -1.3469    0.0000 H       1  UNL1        0.0862
     29 H           7.6625    2.3434    0.0000 H       1  UNL1        0.0624
     30 H           5.0680   -0.4576    0.0000 H       1  UNL1        0.0429
     31 H           4.8313   -1.3018    0.0000 H       1  UNL1        0.0429
     32 H           5.6755   -1.5385    0.0000 H       1  UNL1        0.0429
     33 H           6.2596    3.1534    0.0000 H       1  UNL1        0.0624
     34 H           8.9505    1.7105    0.0000 H       1  UNL1        0.0625
     35 H           4.5068   -0.1212    0.0000 H       1  UNL1        0.0662
     36 H           4.5068    3.1880    0.0000 H       1  UNL1        0.0661
     37 H          10.4436    0.8789    0.0000 H       1  UNL1        0.0655
     38 H           6.5996   -2.3438    0.0000 H       1  UNL1        0.2121
     39 H           1.5391    1.9482    0.0000 H       1  UNL1        0.1166
     40 H           1.5391    1.1187    0.0000 H       1  UNL1        0.1166
     41 H           9.5272   -3.1038    0.0000 H       1  UNL1        0.0660
     42 H          10.3750   -2.8802    0.0000 H       1  UNL1        0.0660
     43 H          10.1513   -2.0323    0.0000 H       1  UNL1        0.0660
     44 H          11.9628   -1.0513    0.0000 H       1  UNL1        0.0660
     45 H          12.1864   -0.2035    0.0000 H       1  UNL1        0.0660
     46 H          11.3386    0.0202    0.0000 H       1  UNL1        0.0660
@<TRIPOS>BOND
     1     1     8    1
     2     1    38    1
     3     2    15    1
     4     2    26    1
     5     3    21    1
     6     3    25    1
     7     4    23    1
     8     4    25    1
     9     5    22    1
    10     5    27    1
    11     6     7    1
    12     6     8    1
    13     6    16    1
    14     7     9   ar
    15     7    12   ar
    16     8    10    1
    17     8    28    1
    18     9    11    1
    19     9    14   ar
    20    10    11   ar
    21    10    15   ar
    22    11    18   ar
    23    12    13   ar
    24    12    19   ar
    25    13    17   ar
    26    13    20   ar
    27    14    17   ar
    28    14    29    1
    29    15    22   ar
    30    16    30    1
    31    16    31    1
    32    16    32    1
    33    17    33    1
    34    18    24   ar
    35    18    34    1
    36    19    21   ar
    37    19    35    1
    38    20    23   ar
    39    20    36    1
    40    21    23   ar
    41    22    24   ar
    42    24    37    1
    43    25    39    1
    44    25    40    1
    45    26    41    1
    46    26    42    1
    47    26    43    1
    48    27    44    1
    49    27    45    1
    50    27    46    1
