@<TRIPOS>MOLECULE
IMPHY016240
 29 28 0 0 0
SMALL
GASTEIGER

@<TRIPOS>ATOM
      1 O           5.1350   -0.3660    0.0000 O.3     1  UNL1       -0.4582
      2 O           2.5369   -0.8660    0.0000 O.3     1  UNL1       -0.3814
      3 O           6.0010    1.1340    0.0000 O.2     1  UNL1       -0.2453
      4 C           3.4030   -0.3660    0.0000 C.3     1  UNL1        0.1150
      5 C           4.2690    0.1340    0.0000 C.3     1  UNL1        0.1247
      6 C           3.9030   -1.2320    0.0000 C.3     1  UNL1       -0.0292
      7 C           2.9030    0.5000    0.0000 C.2     1  UNL1       -0.0570
      8 C           6.0010    0.1340    0.0000 C.2     1  UNL1        0.3347
      9 C           6.8671   -0.3660    0.0000 C.2     1  UNL1        0.0293
     10 C           3.4030    1.3660    0.0000 C.2     1  UNL1       -0.0999
     11 C           6.8671   -1.3660    0.0000 C.3     1  UNL1       -0.0333
     12 C           7.7331    0.1340    0.0000 C.2     1  UNL1       -0.0774
     13 C           8.5991   -0.3660    0.0000 C.3     1  UNL1       -0.0461
     14 H           4.6675    0.6089    0.0000 H       1  UNL1        0.0730
     15 H           3.8705    0.6089    0.0000 H       1  UNL1        0.0730
     16 H           3.3660   -1.5420    0.0000 H       1  UNL1        0.0261
     17 H           4.2130   -1.7690    0.0000 H       1  UNL1        0.0261
     18 H           4.4399   -0.9221    0.0000 H       1  UNL1        0.0261
     19 H           2.2830    0.5000    0.0000 H       1  UNL1        0.0596
     20 H           2.0000   -0.5560    0.0000 H       1  UNL1        0.2107
     21 H           4.0230    1.3660    0.0000 H       1  UNL1        0.0533
     22 H           3.0930    1.9030    0.0000 H       1  UNL1        0.0533
     23 H           6.2471   -1.3660    0.0000 H       1  UNL1        0.0280
     24 H           6.8671   -1.9860    0.0000 H       1  UNL1        0.0280
     25 H           7.4871   -1.3660    0.0000 H       1  UNL1        0.0280
     26 H           7.7331    0.7540    0.0000 H       1  UNL1        0.0574
     27 H           8.2891   -0.9030    0.0000 H       1  UNL1        0.0272
     28 H           9.1360   -0.6760    0.0000 H       1  UNL1        0.0272
     29 H           8.9091    0.1709    0.0000 H       1  UNL1        0.0272
@<TRIPOS>BOND
     1     1     5    1
     2     1     8    1
     3     2     4    1
     4     2    20    1
     5     3     8    2
     6     4     5    1
     7     4     6    1
     8     4     7    1
     9     5    14    1
    10     5    15    1
    11     6    16    1
    12     6    17    1
    13     6    18    1
    14     7    10    2
    15     7    19    1
    16     8     9    1
    17     9    11    1
    18     9    12    2
    19    10    21    1
    20    10    22    1
    21    11    23    1
    22    11    24    1
    23    11    25    1
    24    12    13    1
    25    12    26    1
    26    13    27    1
    27    13    28    1
    28    13    29    1
