@<TRIPOS>MOLECULE
IMPHY007805
 51 53 0 0 0
SMALL
GASTEIGER

@<TRIPOS>ATOM
      1 O           4.6660   -2.7836    0.0000 O.2     1  UNL1       -0.5032
      2 O           3.7782    1.7479    0.0000 O.3     1  UNL1       -0.5031
      3 O           6.3981   -1.7836    0.0000 O.2     1  UNL1       -0.2834
      4 O           5.5442    2.7857    0.0000 O.3     1  UNL1       -0.5031
      5 O           9.0501    1.7548    0.0000 O.3     1  UNL1       -0.3944
      6 C           3.8000   -0.2836    0.0000 C.3     1  UNL1        0.0224
      7 C           2.9061   -1.8182    0.0000 C.3     1  UNL1       -0.0092
      8 C           3.8000   -1.2836    0.0000 C.2     1  UNL1       -0.0084
      9 C           2.9061    0.2511    0.0000 C.3     1  UNL1       -0.0396
     10 C           2.0000   -1.3044    0.0000 C.3     1  UNL1       -0.0440
     11 C           2.0000   -0.2628    0.0000 C.3     1  UNL1       -0.0512
     12 C           4.6660    0.2164    0.0000 C.ar    1  UNL1        0.0186
     13 C           3.8000    0.7164    0.0000 C.3     1  UNL1       -0.0515
     14 C           2.4161   -2.6900    0.0000 C.3     1  UNL1       -0.0559
     15 C           3.4160   -2.6784    0.0000 C.3     1  UNL1       -0.0559
     16 C           4.6660   -1.7836    0.0000 C.2     1  UNL1        0.1647
     17 C           5.5321   -0.2836    0.0000 C.ar    1  UNL1        0.0333
     18 C           5.5321   -1.2836    0.0000 C.2     1  UNL1        0.2275
     19 C           4.6500    1.2579    0.0000 C.ar    1  UNL1        0.1633
     20 C           6.4421    0.2233    0.0000 C.ar    1  UNL1       -0.0433
     21 C           6.4501    1.2648    0.0000 C.ar    1  UNL1        0.0034
     22 C           5.5480    1.7857    0.0000 C.ar    1  UNL1        0.1621
     23 C           7.3180    1.7615    0.0000 C.3     1  UNL1        0.0081
     24 C           8.1821    1.2582    0.0000 C.3     1  UNL1        0.0509
     25 C           7.3219    2.7615    0.0000 C.3     1  UNL1       -0.0562
     26 H           3.3107    0.7209    0.0000 H       1  UNL1        0.0277
     27 H           2.5124    0.7301    0.0000 H       1  UNL1        0.0277
     28 H           1.3891   -1.1983    0.0000 H       1  UNL1        0.0274
     29 H           1.7909   -1.8881    0.0000 H       1  UNL1        0.0274
     30 H           1.7909    0.3209    0.0000 H       1  UNL1        0.0266
     31 H           1.3891   -0.3689    0.0000 H       1  UNL1        0.0266
     32 H           4.4200    0.7164    0.0000 H       1  UNL1        0.0241
     33 H           3.8000    1.3364    0.0000 H       1  UNL1        0.0241
     34 H           3.1800    0.7164    0.0000 H       1  UNL1        0.0241
     35 H           1.8756   -2.3862    0.0000 H       1  UNL1        0.0238
     36 H           2.8827   -2.9946    0.0000 H       1  UNL1        0.0238
     37 H           3.7322   -3.2118    0.0000 H       1  UNL1        0.0238
     38 H           3.9494   -2.3622    0.0000 H       1  UNL1        0.0238
     39 H           2.1123   -3.2305    0.0000 H       1  UNL1        0.0238
     40 H           2.9566   -2.9938    0.0000 H       1  UNL1        0.0238
     41 H           6.9754   -0.0929    0.0000 H       1  UNL1        0.0629
     42 H           7.8562    2.0694    0.0000 H       1  UNL1        0.0370
     43 H           5.2030   -3.0936    0.0000 H       1  UNL1        0.2923
     44 H           3.7711    2.3678    0.0000 H       1  UNL1        0.2923
     45 H           7.7818    0.7848    0.0000 H       1  UNL1        0.0563
     46 H           8.5788    0.7817    0.0000 H       1  UNL1        0.0563
     47 H           7.9419    2.7591    0.0000 H       1  UNL1        0.0236
     48 H           7.3243    3.3815    0.0000 H       1  UNL1        0.0236
     49 H           6.7019    2.7639    0.0000 H       1  UNL1        0.0236
     50 H           5.0060    3.0936    0.0000 H       1  UNL1        0.2923
     51 H           9.5858    1.4428    0.0000 H       1  UNL1        0.2094
@<TRIPOS>BOND
     1     1    16    1
     2     1    43    1
     3     2    19    1
     4     2    44    1
     5     3    18    2
     6     4    22    1
     7     4    50    1
     8     5    24    1
     9     5    51    1
    10     6     8    1
    11     6     9    1
    12     6    12    1
    13     6    13    1
    14     7     8    1
    15     7    10    1
    16     7    14    1
    17     7    15    1
    18     8    16    2
    19     9    11    1
    20     9    26    1
    21     9    27    1
    22    10    11    1
    23    10    28    1
    24    10    29    1
    25    11    30    1
    26    11    31    1
    27    12    17   ar
    28    12    19   ar
    29    13    32    1
    30    13    33    1
    31    13    34    1
    32    14    35    1
    33    14    39    1
    34    14    40    1
    35    15    36    1
    36    15    37    1
    37    15    38    1
    38    16    18    1
    39    17    18    1
    40    17    20   ar
    41    19    22   ar
    42    20    21   ar
    43    20    41    1
    44    21    22   ar
    45    21    23    1
    46    23    24    1
    47    23    25    1
    48    23    42    1
    49    24    45    1
    50    24    46    1
    51    25    47    1
    52    25    48    1
    53    25    49    1
