@<TRIPOS>MOLECULE
IMPHY010174
 65 68 0 0 0
SMALL
GASTEIGER

@<TRIPOS>ATOM
      1 O           5.1350   -1.6796    0.0000 O.3     1  UNL1       -0.3313
      2 O           6.8671   -1.6796    0.0000 O.3     1  UNL1       -0.4603
      3 O           5.1350   -4.6796    0.0000 O.3     1  UNL1       -0.3864
      4 O           3.4030   -3.6796    0.0000 O.3     1  UNL1       -0.3865
      5 O           6.8671   -3.6796    0.0000 O.3     1  UNL1       -0.3829
      6 O           2.5369   -2.1796    0.0000 O.3     1  UNL1       -0.3924
      7 O           8.6230    1.3829    0.0000 O.2     1  UNL1       -0.4504
      8 O           5.1208    1.3996    0.0000 O.3     1  UNL1       -0.5058
      9 O           6.0308    2.8930    0.0000 O.2     1  UNL1       -0.2830
     10 O           7.7666    3.8863    0.0000 O.3     1  UNL1       -0.5007
     11 O          12.0987    4.3696    0.0000 O.3     1  UNL1       -0.5068
     12 C           5.1350   -3.6796    0.0000 C.3     1  UNL1        0.1152
     13 C           4.2690   -3.1796    0.0000 C.3     1  UNL1        0.1120
     14 C           6.0010   -3.1796    0.0000 C.3     1  UNL1        0.1454
     15 C           4.2690   -2.1796    0.0000 C.3     1  UNL1        0.1140
     16 C           6.0010   -2.1796    0.0000 C.3     1  UNL1        0.2308
     17 C           3.4030   -1.6796    0.0000 C.3     1  UNL1        0.0731
     18 C           6.8671   -0.6796    0.0000 C.ar    1  UNL1        0.1344
     19 C           7.7671   -0.1553    0.0000 C.ar    1  UNL1        0.0412
     20 C           7.7551    0.8863    0.0000 C.ar    1  UNL1        0.1500
     21 C           5.9670   -0.1553    0.0000 C.ar    1  UNL1        0.0229
     22 C           8.6370   -0.6486    0.0000 C.3     1  UNL1       -0.0023
     23 C           6.8910    1.3896    0.0000 C.ar    1  UNL1        0.1094
     24 C           5.9790    0.8863    0.0000 C.ar    1  UNL1        0.1348
     25 C           6.8948    2.3896    0.0000 C.ar    1  UNL1        0.2379
     26 C           8.6447   -1.6486    0.0000 C.2     1  UNL1       -0.0807
     27 C           8.6269    2.3829    0.0000 C.ar    1  UNL1        0.1806
     28 C           7.7628    2.8863    0.0000 C.ar    1  UNL1        0.2082
     29 C           9.5145   -2.1419    0.0000 C.2     1  UNL1       -0.0793
     30 C           9.4948    2.8796    0.0000 C.ar    1  UNL1        0.0213
     31 C           9.5222   -3.1418    0.0000 C.3     1  UNL1       -0.0440
     32 C          10.3767   -1.6352    0.0000 C.3     1  UNL1       -0.0440
     33 C          10.3589    2.3763    0.0000 C.ar    1  UNL1       -0.0475
     34 C           9.4987    3.8796    0.0000 C.ar    1  UNL1       -0.0475
     35 C          11.2269    2.8729    0.0000 C.ar    1  UNL1       -0.0195
     36 C          10.3666    4.3762    0.0000 C.ar    1  UNL1       -0.0195
     37 C          11.2307    3.8729    0.0000 C.ar    1  UNL1        0.1169
     38 H           5.6720   -3.9896    0.0000 H       1  UNL1        0.0648
     39 H           4.2690   -3.7996    0.0000 H       1  UNL1        0.0647
     40 H           6.5380   -2.8696    0.0000 H       1  UNL1        0.0683
     41 H           4.2690   -1.5596    0.0000 H       1  UNL1        0.0647
     42 H           6.0010   -1.5596    0.0000 H       1  UNL1        0.1084
     43 H           3.8015   -1.2046    0.0000 H       1  UNL1        0.0584
     44 H           3.0044   -1.2046    0.0000 H       1  UNL1        0.0584
     45 H           4.5981   -4.9896    0.0000 H       1  UNL1        0.2100
     46 H           3.4030   -4.2996    0.0000 H       1  UNL1        0.2100
     47 H           6.8671   -4.2996    0.0000 H       1  UNL1        0.2102
     48 H           5.4277   -0.4611    0.0000 H       1  UNL1        0.0691
     49 H           2.0000   -1.8696    0.0000 H       1  UNL1        0.2095
     50 H           9.2484   -0.7515    0.0000 H       1  UNL1        0.0358
     51 H           8.8445   -0.0644    0.0000 H       1  UNL1        0.0358
     52 H           8.1102   -1.9627    0.0000 H       1  UNL1        0.0575
     53 H           4.5792    1.0979    0.0000 H       1  UNL1        0.2922
     54 H           8.9023   -3.1466    0.0000 H       1  UNL1        0.0274
     55 H           9.5270   -3.7618    0.0000 H       1  UNL1        0.0274
     56 H          10.1422   -3.1370    0.0000 H       1  UNL1        0.0274
     57 H          10.6908   -2.1697    0.0000 H       1  UNL1        0.0274
     58 H          10.9112   -1.3211    0.0000 H       1  UNL1        0.0274
     59 H          10.0626   -1.1007    0.0000 H       1  UNL1        0.0274
     60 H          10.3565    1.7563    0.0000 H       1  UNL1        0.0626
     61 H           8.9630    4.1916    0.0000 H       1  UNL1        0.0626
     62 H           7.2309    4.1983    0.0000 H       1  UNL1        0.2924
     63 H          11.7626    2.5608    0.0000 H       1  UNL1        0.0654
     64 H          10.3690    4.9962    0.0000 H       1  UNL1        0.0654
     65 H          12.1011    4.9896    0.0000 H       1  UNL1        0.2921
@<TRIPOS>BOND
     1     1    15    1
     2     1    16    1
     3    16     2    1
     4     2    18    1
     5    12     3    1
     6     3    45    1
     7    13     4    1
     8     4    46    1
     9    14     5    1
    10     5    47    1
    11     6    17    1
    12     6    49    1
    13     7    20   ar
    14     7    27   ar
    15     8    24    1
    16     8    53    1
    17     9    25    2
    18    10    28    1
    19    10    62    1
    20    11    37    1
    21    11    65    1
    22    12    13    1
    23    12    14    1
    24    12    38    1
    25    13    15    1
    26    13    39    1
    27    14    16    1
    28    14    40    1
    29    15    17    1
    30    15    41    1
    31    16    42    1
    32    17    43    1
    33    17    44    1
    34    18    19   ar
    35    18    21   ar
    36    19    20   ar
    37    19    22    1
    38    20    23   ar
    39    21    24   ar
    40    21    48    1
    41    22    26    1
    42    22    50    1
    43    22    51    1
    44    23    24   ar
    45    23    25   ar
    46    25    28   ar
    47    26    29    2
    48    26    52    1
    49    27    28   ar
    50    27    30    1
    51    29    31    1
    52    29    32    1
    53    30    33   ar
    54    30    34   ar
    55    31    54    1
    56    31    55    1
    57    31    56    1
    58    32    57    1
    59    32    58    1
    60    32    59    1
    61    33    35   ar
    62    33    60    1
    63    34    36   ar
    64    34    61    1
    65    35    37   ar
    66    35    63    1
    67    36    37   ar
    68    36    64    1
