@<TRIPOS>MOLECULE
IMPHY009137
 86 91 0 0 0
SMALL
GASTEIGER

@<TRIPOS>ATOM
      1 O           8.9846    1.0658    0.0000 O.3     1  UNL1       -0.3558
      2 O           8.4700    2.2189    0.0000 O.3     1  UNL1       -0.4577
      3 O          11.0247   -0.8874    0.0000 O.3     1  UNL1       -0.4557
      4 O           3.8448    2.3830    0.0000 O.3     1  UNL1       -0.4598
      5 O           7.0577    3.5907    0.0000 O.2     1  UNL1       -0.2963
      6 O          11.7632    0.7631    0.0000 O.2     1  UNL1       -0.2507
      7 O           9.7936   -4.0604    0.0000 O.2     1  UNL1       -0.4706
      8 O           3.8125   -2.4698    0.0000 O.3     1  UNL1       -0.4679
      9 O          10.1851    1.9779    0.0000 O.2     1  UNL1       -0.2512
     10 O           3.0262   -0.9265    0.0000 O.2     1  UNL1       -0.2509
     11 O           2.3922    1.4397    0.0000 O.2     1  UNL1       -0.2505
     12 C           8.1299    0.4697    0.0000 C.3     1  UNL1        0.1413
     13 C           9.0731    0.0275    0.0000 C.3     1  UNL1        0.1221
     14 C           7.3009   -0.0895    0.0000 C.3     1  UNL1        0.0068
     15 C           9.1537   -1.0110    0.0000 C.3     1  UNL1        0.0416
     16 C           6.0799    0.7761    0.0000 C.3     1  UNL1        0.0363
     17 C           7.8543    1.4309    0.0000 C.3     1  UNL1        0.1477
     18 C           5.8210    1.7420    0.0000 C.3     1  UNL1        0.0952
     19 C           7.3575   -1.1296    0.0000 C.3     1  UNL1       -0.0458
     20 C           8.2902   -1.5935    0.0000 C.3     1  UNL1       -0.0408
     21 C           4.8082   -0.0185    0.0000 C.3     1  UNL1       -0.0100
     22 C           9.9583    0.6549    0.0000 C.3     1  UNL1        0.0775
     23 C           6.5577    2.7247    0.0000 C.2     1  UNL1        0.1501
     24 C           4.0310    0.6108    0.0000 C.3     1  UNL1        0.0072
     25 C           4.3894    1.5444    0.0000 C.3     1  UNL1        0.1214
     26 C          10.1252   -1.4941    0.0000 C.3     1  UNL1        0.1390
     27 C           9.2312   -2.0080    0.0000 C.3     1  UNL1       -0.0531
     28 C           5.8210   -0.1898    0.0000 C.3     1  UNL1       -0.0522
     29 C          10.9407    0.1943    0.0000 C.2     1  UNL1        0.3106
     30 C           4.7558   -1.0172    0.0000 C.3     1  UNL1        0.0492
     31 C           3.0651    0.8696    0.0000 C.3     1  UNL1       -0.0561
     32 C           3.3239   -0.0963    0.0000 C.3     1  UNL1       -0.0561
     33 C          10.1911   -2.4919    0.0000 C.ar    1  UNL1        0.0310
     34 C           9.3971    2.5936    0.0000 C.2     1  UNL1        0.3043
     35 C           3.8648   -1.4711    0.0000 C.2     1  UNL1        0.3071
     36 C          11.0371   -3.0251    0.0000 C.ar    1  UNL1       -0.0172
     37 C           9.4226   -3.1318    0.0000 C.ar    1  UNL1        0.0984
     38 C           2.8461    2.3307    0.0000 C.2     1  UNL1        0.3100
     39 C           9.5363    3.5838    0.0000 C.3     1  UNL1        0.0332
     40 C          10.7915   -3.9945    0.0000 C.ar    1  UNL1        0.0921
     41 C           2.3015    3.1694    0.0000 C.3     1  UNL1        0.0508
     42 C           1.3029    3.1170    0.0000 C.3     1  UNL1       -0.0525
     43 C           2.7555    4.0604    0.0000 C.3     1  UNL1       -0.0525
     44 C           2.9215   -2.9238    0.0000 C.3     1  UNL1        0.0817
     45 H           6.5962   -0.5649    0.0000 H       1  UNL1        0.0340
     46 H           8.4629    1.3126    0.0000 H       1  UNL1        0.0772
     47 H           5.6010    2.5631    0.0000 H       1  UNL1        0.0452
     48 H           7.1805   -1.7238    0.0000 H       1  UNL1        0.0269
     49 H           6.7418   -1.0569    0.0000 H       1  UNL1        0.0269
     50 H           8.7197   -2.0406    0.0000 H       1  UNL1        0.0273
     51 H           7.9232   -2.0932    0.0000 H       1  UNL1        0.0273
     52 H           4.2418   -0.2707    0.0000 H       1  UNL1        0.0322
     53 H           9.5185    1.0919    0.0000 H       1  UNL1        0.0407
     54 H          10.3136    1.1629    0.0000 H       1  UNL1        0.0407
     55 H           3.7728    1.4796    0.0000 H       1  UNL1        0.0748
     56 H          10.6820   -1.7670    0.0000 H       1  UNL1        0.0793
     57 H           9.8493   -1.9600    0.0000 H       1  UNL1        0.0237
     58 H           9.2792   -2.6261    0.0000 H       1  UNL1        0.0237
     59 H           8.6130   -2.0560    0.0000 H       1  UNL1        0.0237
     60 H           6.4198   -0.3503    0.0000 H       1  UNL1        0.0239
     61 H           5.6605   -0.7886    0.0000 H       1  UNL1        0.0239
     62 H           5.2221   -0.0293    0.0000 H       1  UNL1        0.0239
     63 H           5.3712   -0.9416    0.0000 H       1  UNL1        0.0381
     64 H           4.9371   -1.6101    0.0000 H       1  UNL1        0.0381
     65 H           2.9046    0.2707    0.0000 H       1  UNL1        0.0236
     66 H           3.7623   -0.5347    0.0000 H       1  UNL1        0.0236
     67 H           2.8855   -0.5347    0.0000 H       1  UNL1        0.0236
     68 H           2.4662    1.0301    0.0000 H       1  UNL1        0.0236
     69 H           2.8855    0.3421    0.0000 H       1  UNL1        0.0236
     70 H           3.2256    1.4685    0.0000 H       1  UNL1        0.0236
     71 H          11.6129   -2.7951    0.0000 H       1  UNL1        0.0653
     72 H           8.8216   -2.9795    0.0000 H       1  UNL1        0.1033
     73 H           8.9224    3.6701    0.0000 H       1  UNL1        0.0342
     74 H           9.6226    4.1978    0.0000 H       1  UNL1        0.0342
     75 H          10.1503    3.4975    0.0000 H       1  UNL1        0.0342
     76 H          11.1882   -4.4710    0.0000 H       1  UNL1        0.1029
     77 H           2.9207    3.2018    0.0000 H       1  UNL1        0.0408
     78 H           2.2031    4.3419    0.0000 H       1  UNL1        0.0237
     79 H           3.0370    4.6128    0.0000 H       1  UNL1        0.0237
     80 H           3.3079    3.7789    0.0000 H       1  UNL1        0.0237
     81 H           1.3353    2.4979    0.0000 H       1  UNL1        0.0237
     82 H           0.6837    3.0846    0.0000 H       1  UNL1        0.0237
     83 H           1.2704    3.7362    0.0000 H       1  UNL1        0.0237
     84 H           3.2030   -3.4762    0.0000 H       1  UNL1        0.0661
     85 H           2.3691   -3.2052    0.0000 H       1  UNL1        0.0661
     86 H           2.6400   -2.3713    0.0000 H       1  UNL1        0.0661
@<TRIPOS>BOND
     1    12     1    1
     2    13     1    1
     3    17     2    1
     4     2    34    1
     5     3    26    1
     6     3    29    1
     7    25     4    1
     8     4    38    1
     9     5    23    2
    10     6    29    2
    11     7    37   ar
    12     7    40   ar
    13     8    35    1
    14     8    44    1
    15     9    34    2
    16    10    35    2
    17    11    38    2
    18    12    13    1
    19    12    14    1
    20    12    17    1
    21    13    15    1
    22    13    22    1
    23    14    16    1
    24    14    19    1
    25    14    45    1
    26    15    20    1
    27    15    26    1
    28    15    27    1
    29    16    21    1
    30    16    23    1
    31    16    28    1
    32    17    18    1
    33    17    46    1
    34    18    23    1
    35    18    25    1
    36    18    47    1
    37    19    20    1
    38    19    48    1
    39    19    49    1
    40    20    50    1
    41    20    51    1
    42    21    24    1
    43    21    30    1
    44    21    52    1
    45    22    29    1
    46    22    53    1
    47    22    54    1
    48    24    25    1
    49    24    31    1
    50    24    32    1
    51    25    55    1
    52    26    33    1
    53    26    56    1
    54    27    57    1
    55    27    58    1
    56    27    59    1
    57    28    60    1
    58    28    61    1
    59    28    62    1
    60    30    35    1
    61    30    63    1
    62    30    64    1
    63    31    65    1
    64    31    68    1
    65    31    70    1
    66    32    66    1
    67    32    67    1
    68    32    69    1
    69    33    36   ar
    70    33    37   ar
    71    34    39    1
    72    36    40   ar
    73    36    71    1
    74    37    72    1
    75    38    41    1
    76    39    73    1
    77    39    74    1
    78    39    75    1
    79    40    76    1
    80    41    42    1
    81    41    43    1
    82    41    77    1
    83    42    81    1
    84    42    82    1
    85    42    83    1
    86    43    78    1
    87    43    79    1
    88    43    80    1
    89    44    84    1
    90    44    85    1
    91    44    86    1
