@<TRIPOS>MOLECULE
IMPHY012210
 38 42 0 0 0
SMALL
GASTEIGER

@<TRIPOS>ATOM
      1 N           3.5352   -0.0167    0.0000 N.ar    1  UNL1       -0.3550
      2 N           5.0387   -1.3862    0.0000 N.ar    1  UNL1       -0.3550
      3 N           5.0052    1.3527    0.0000 N.2     1  UNL1       -0.2477
      4 N           6.5404   -0.0167    0.0000 N.2     1  UNL1       -0.2477
      5 C           2.9677   -0.7852    0.0000 C.ar    1  UNL1        0.0416
      6 C           4.2367   -2.0208    0.0000 C.ar    1  UNL1        0.0416
      7 C           2.9677    0.7517    0.0000 C.ar    1  UNL1        0.0417
      8 C           5.8406   -1.9873    0.0000 C.ar    1  UNL1        0.0417
      9 C           3.2690   -1.7194    0.0000 C.2     1  UNL1       -0.0150
     10 C           2.0000   -0.5173    0.0000 C.ar    1  UNL1       -0.0364
     11 C           4.5381   -2.9550    0.0000 C.ar    1  UNL1       -0.0364
     12 C           2.0000    0.4838    0.0000 C.ar    1  UNL1       -0.0364
     13 C           5.5393   -2.9550    0.0000 C.ar    1  UNL1       -0.0364
     14 C           3.2356    1.7194    0.0000 C.2     1  UNL1       -0.0129
     15 C           6.8418   -1.7194    0.0000 C.2     1  UNL1       -0.0129
     16 C           4.2032    1.9873    0.0000 C.2     1  UNL1        0.0665
     17 C           7.1415   -0.7517    0.0000 C.2     1  UNL1        0.0665
     18 C           5.8406    2.0208    0.0000 C.2     1  UNL1        0.0666
     19 C           7.1080    0.7852    0.0000 C.2     1  UNL1        0.0666
     20 C           6.8083    1.7194    0.0000 C.2     1  UNL1       -0.0109
     21 C           4.5046    2.9550    0.0000 C.2     1  UNL1       -0.0342
     22 C           8.0773   -0.4838    0.0000 C.2     1  UNL1       -0.0342
     23 C           5.5058    2.9550    0.0000 C.2     1  UNL1       -0.0342
     24 C           8.0773    0.5173    0.0000 C.2     1  UNL1       -0.0342
     25 H           2.8329   -2.1600    0.0000 H       1  UNL1        0.0659
     26 H           4.1552   -0.0167    0.0000 H       1  UNL1        0.1659
     27 H           5.0305   -0.7663    0.0000 H       1  UNL1        0.1659
     28 H           1.5066   -0.8927    0.0000 H       1  UNL1        0.0639
     29 H           4.1731   -3.4562    0.0000 H       1  UNL1        0.0639
     30 H           1.5066    0.8592    0.0000 H       1  UNL1        0.0639
     31 H           5.9068   -3.4543    0.0000 H       1  UNL1        0.0639
     32 H           2.7971    2.1578    0.0000 H       1  UNL1        0.0659
     33 H           7.2716   -2.1662    0.0000 H       1  UNL1        0.0659
     34 H           7.2448    2.1597    0.0000 H       1  UNL1        0.0660
     35 H           4.1371    3.4543    0.0000 H       1  UNL1        0.0639
     36 H           8.5724   -0.8571    0.0000 H       1  UNL1        0.0639
     37 H           5.8626    3.4620    0.0000 H       1  UNL1        0.0639
     38 H           8.5707    0.8928    0.0000 H       1  UNL1        0.0639
@<TRIPOS>BOND
     1     1     5   ar
     2     1     7   ar
     3     1    26    1
     4     2     6   ar
     5     2     8   ar
     6     2    27    1
     7     3    16    2
     8     3    18    1
     9     4    17    1
    10     4    19    2
    11     5     9    2
    12     5    10   ar
    13     6     9    1
    14     6    11   ar
    15     7    12   ar
    16     7    14    2
    17     8    13   ar
    18     8    15    1
    19     9    25    1
    20    10    12   ar
    21    10    28    1
    22    11    13   ar
    23    11    29    1
    24    12    30    1
    25    13    31    1
    26    14    16    1
    27    14    32    1
    28    15    17    2
    29    15    33    1
    30    16    21    1
    31    17    22    1
    32    18    20    2
    33    18    23    1
    34    19    20    1
    35    19    24    1
    36    20    34    1
    37    21    23    2
    38    21    35    1
    39    22    24    2
    40    22    36    1
    41    23    37    1
    42    24    38    1
