@<TRIPOS>MOLECULE
IMPHY012427
 45 48 0 0 0
SMALL
GASTEIGER

@<TRIPOS>ATOM
      1 O           3.8372   -4.3796    0.0000 O.3     1  UNL1       -0.4914
      2 O           5.6405   -3.3199    0.0000 O.3     1  UNL1       -0.5033
      3 O           4.6622    4.3863    0.0000 O.3     1  UNL1       -0.4914
      4 O           6.4361    3.3622    0.0000 O.3     1  UNL1       -0.4914
      5 N           2.9180    0.3171    0.0000 N.ar    1  UNL1       -0.1962
      6 C           2.0080   -0.1898    0.0000 C.3     1  UNL1        0.1550
      7 C           2.0000   -1.2314    0.0000 C.3     1  UNL1        0.0330
      8 C           3.7841   -0.1829    0.0000 C.ar    1  UNL1        0.2159
      9 C           2.9021   -1.7522    0.0000 C.ar    1  UNL1       -0.0243
     10 C           3.8001   -1.2244    0.0000 C.ar    1  UNL1        0.0533
     11 C           2.9180    1.3171    0.0000 C.ar    1  UNL1        0.1796
     12 C           4.6501    0.3171    0.0000 C.ar    1  UNL1        0.0183
     13 C           3.7841    1.8171    0.0000 C.ar    1  UNL1        0.0495
     14 C           4.6501    1.3171    0.0000 C.ar    1  UNL1       -0.0023
     15 C           2.8937   -2.8372    0.0000 C.ar    1  UNL1       -0.0122
     16 C           4.7520   -1.7451    0.0000 C.ar    1  UNL1       -0.0028
     17 C           3.8334   -3.3796    0.0000 C.ar    1  UNL1        0.1616
     18 C           4.7688   -2.8299    0.0000 C.ar    1  UNL1        0.1592
     19 C           3.7680    2.8586    0.0000 C.ar    1  UNL1       -0.0029
     20 C           5.5601    1.8239    0.0000 C.ar    1  UNL1       -0.0082
     21 C           4.6660    3.3863    0.0000 C.ar    1  UNL1        0.1623
     22 C           5.5681    2.8655    0.0000 C.ar    1  UNL1        0.1621
     23 C           2.9731   -4.8830    0.0000 C.3     1  UNL1        0.0790
     24 C           3.7942    4.8830    0.0000 C.3     1  UNL1        0.0790
     25 C           7.3002    2.8588    0.0000 C.3     1  UNL1        0.0790
     26 H           1.8035    0.3955    0.0000 H       1  UNL1        0.1034
     27 H           1.3964   -0.2912    0.0000 H       1  UNL1        0.1034
     28 H           1.3900   -1.1206    0.0000 H       1  UNL1        0.0375
     29 H           1.7864   -1.8134    0.0000 H       1  UNL1        0.0375
     30 H           2.3811    1.6271    0.0000 H       1  UNL1        0.1383
     31 H           5.1870    0.0071    0.0000 H       1  UNL1        0.0690
     32 H           2.3556   -3.1451    0.0000 H       1  UNL1        0.0658
     33 H           5.2829   -1.4248    0.0000 H       1  UNL1        0.0663
     34 H           3.2275    3.1624    0.0000 H       1  UNL1        0.0663
     35 H           6.0934    1.5077    0.0000 H       1  UNL1        0.0661
     36 H           5.6477   -3.9398    0.0000 H       1  UNL1        0.2923
     37 H           2.6610   -4.3472    0.0000 H       1  UNL1        0.0660
     38 H           2.4374   -5.1950    0.0000 H       1  UNL1        0.0660
     39 H           3.2852   -5.4187    0.0000 H       1  UNL1        0.0660
     40 H           4.1022    5.4211    0.0000 H       1  UNL1        0.0660
     41 H           3.2561    5.1909    0.0000 H       1  UNL1        0.0660
     42 H           3.4863    4.3448    0.0000 H       1  UNL1        0.0660
     43 H           6.9881    2.3231    0.0000 H       1  UNL1        0.0660
     44 H           7.8359    2.5468    0.0000 H       1  UNL1        0.0660
     45 H           7.6122    3.3946    0.0000 H       1  UNL1        0.0660
@<TRIPOS>UNITY_ATOM_ATTR
5 1
charge 1
@<TRIPOS>BOND
     1     1    17    1
     2     1    23    1
     3     2    18    1
     4     2    36    1
     5     3    21    1
     6     3    24    1
     7     4    22    1
     8     4    25    1
     9     5     6    1
    10     5     8   ar
    11     5    11   ar
    12     6     7    1
    13     6    26    1
    14     6    27    1
    15     7     9    1
    16     7    28    1
    17     7    29    1
    18     8    10    1
    19     8    12   ar
    20     9    10   ar
    21     9    15   ar
    22    10    16   ar
    23    11    13   ar
    24    11    30    1
    25    12    14   ar
    26    12    31    1
    27    13    14   ar
    28    13    19   ar
    29    14    20   ar
    30    15    17   ar
    31    15    32    1
    32    16    18   ar
    33    16    33    1
    34    17    18   ar
    35    19    21   ar
    36    19    34    1
    37    20    22   ar
    38    20    35    1
    39    21    22   ar
    40    23    37    1
    41    23    38    1
    42    23    39    1
    43    24    40    1
    44    24    41    1
    45    24    42    1
    46    25    43    1
    47    25    44    1
    48    25    45    1
