@<TRIPOS>MOLECULE
IMPHY001827
 63 68 0 0 0
SMALL
GASTEIGER

@<TRIPOS>ATOM
      1 O           6.0427   -1.2143    0.0000 O.3     1  UNL1       -0.4822
      2 O           6.9367    1.2510    0.0000 O.3     1  UNL1       -0.4825
      3 O           3.4446    0.2857    0.0000 O.2     1  UNL1       -0.2910
      4 O           3.4446    1.2857    0.0000 O.3     1  UNL1       -0.5062
      5 O           5.1767    4.2857    0.0000 O.3     1  UNL1       -0.5058
      6 O           6.9251    4.3202    0.0000 O.2     1  UNL1       -0.2917
      7 O           2.5405   -1.2112    0.0000 O.3     1  UNL1       -0.5058
      8 O           4.2986   -4.2836    0.0000 O.3     1  UNL1       -0.5065
      9 O           9.5068   -2.2143    0.0000 O.3     1  UNL1       -0.5068
     10 O          11.3068    1.7515    0.0000 O.3     1  UNL1       -0.5033
     11 O          11.2991   -0.2485    0.0000 O.3     1  UNL1       -0.5033
     12 C           5.1767    0.2857    0.0000 C.3     1  UNL1        0.0953
     13 C           6.0427   -0.2143    0.0000 C.3     1  UNL1        0.1392
     14 C           5.1767    1.2857    0.0000 C.ar    1  UNL1        0.0510
     15 C           6.0427    1.7857    0.0000 C.ar    1  UNL1        0.1428
     16 C           4.3107   -0.2143    0.0000 C.2     1  UNL1        0.1816
     17 C           7.8427    1.7648    0.0000 C.3     1  UNL1        0.1323
     18 C           6.0427    2.7857    0.0000 C.ar    1  UNL1        0.1010
     19 C           6.9088   -0.7143    0.0000 C.ar    1  UNL1       -0.0061
     20 C           4.3107   -1.2143    0.0000 C.ar    1  UNL1        0.1013
     21 C           7.8427    2.8065    0.0000 C.3     1  UNL1        0.0520
     22 C           4.3107    1.7857    0.0000 C.ar    1  UNL1        0.1278
     23 C           5.1767   -1.7143    0.0000 C.ar    1  UNL1        0.1389
     24 C           6.9367    3.3203    0.0000 C.2     1  UNL1        0.1740
     25 C           5.1767    3.2857    0.0000 C.ar    1  UNL1        0.1343
     26 C           4.3107    2.7857    0.0000 C.ar    1  UNL1        0.0225
     27 C           8.7068    1.2615    0.0000 C.ar    1  UNL1       -0.0033
     28 C           3.4007   -1.7212    0.0000 C.ar    1  UNL1        0.1343
     29 C           6.9088   -1.7143    0.0000 C.ar    1  UNL1       -0.0516
     30 C           7.7748   -0.2143    0.0000 C.ar    1  UNL1       -0.0516
     31 C           5.1928   -2.7558    0.0000 C.ar    1  UNL1        0.0225
     32 C           3.3926   -2.7628    0.0000 C.ar    1  UNL1        0.0222
     33 C           4.2947   -3.2836    0.0000 C.ar    1  UNL1        0.1238
     34 C           9.5748    1.7582    0.0000 C.ar    1  UNL1       -0.0099
     35 C           8.7030    0.2615    0.0000 C.ar    1  UNL1       -0.0514
     36 C           7.7748   -2.2143    0.0000 C.ar    1  UNL1       -0.0198
     37 C           8.6408   -0.7143    0.0000 C.ar    1  UNL1       -0.0198
     38 C           8.6408   -1.7143    0.0000 C.ar    1  UNL1        0.1169
     39 C          10.4389    1.2548    0.0000 C.ar    1  UNL1        0.1586
     40 C           9.5671   -0.2418    0.0000 C.ar    1  UNL1       -0.0162
     41 C          10.4350    0.2548    0.0000 C.ar    1  UNL1        0.1582
     42 H           5.7136    0.5957    0.0000 H       1  UNL1        0.0472
     43 H           6.3527    0.3226    0.0000 H       1  UNL1        0.0795
     44 H           8.3803    2.0738    0.0000 H       1  UNL1        0.0789
     45 H           8.4536    2.7004    0.0000 H       1  UNL1        0.0385
     46 H           8.0518    3.3902    0.0000 H       1  UNL1        0.0385
     47 H           3.7737    3.0957    0.0000 H       1  UNL1        0.0691
     48 H           6.3718   -2.0243    0.0000 H       1  UNL1        0.0623
     49 H           7.7748    0.4057    0.0000 H       1  UNL1        0.0623
     50 H           5.7332   -3.0596    0.0000 H       1  UNL1        0.0691
     51 H           2.8545   -3.0707    0.0000 H       1  UNL1        0.0691
     52 H           9.5772    2.3782    0.0000 H       1  UNL1        0.0659
     53 H           8.1648   -0.0464    0.0000 H       1  UNL1        0.0623
     54 H           7.7748   -2.8343    0.0000 H       1  UNL1        0.0654
     55 H           9.1777   -0.4043    0.0000 H       1  UNL1        0.0654
     56 H           2.9077    1.5957    0.0000 H       1  UNL1        0.2921
     57 H           4.6398    4.5957    0.0000 H       1  UNL1        0.2922
     58 H           9.5647   -0.8618    0.0000 H       1  UNL1        0.0655
     59 H           2.0000   -1.5150    0.0000 H       1  UNL1        0.2922
     60 H           3.7628   -4.5957    0.0000 H       1  UNL1        0.2921
     61 H          10.0438   -1.9043    0.0000 H       1  UNL1        0.2921
     62 H          11.8425    1.4394    0.0000 H       1  UNL1        0.2923
     63 H          11.2967   -0.8685    0.0000 H       1  UNL1        0.2923
@<TRIPOS>BOND
     1     1    13    1
     2     1    23    1
     3     2    15    1
     4     2    17    1
     5     3    16    2
     6     4    22    1
     7     4    56    1
     8     5    25    1
     9     5    57    1
    10     6    24    2
    11     7    28    1
    12     7    59    1
    13     8    33    1
    14     8    60    1
    15     9    38    1
    16     9    61    1
    17    10    39    1
    18    10    62    1
    19    11    41    1
    20    11    63    1
    21    12    13    1
    22    12    14    1
    23    12    16    1
    24    12    42    1
    25    13    19    1
    26    13    43    1
    27    14    15   ar
    28    14    22   ar
    29    15    18   ar
    30    16    20    1
    31    17    21    1
    32    17    27    1
    33    17    44    1
    34    18    24    1
    35    18    25   ar
    36    19    29   ar
    37    19    30   ar
    38    20    23   ar
    39    20    28   ar
    40    21    24    1
    41    21    45    1
    42    21    46    1
    43    22    26   ar
    44    23    31   ar
    45    25    26   ar
    46    26    47    1
    47    27    34   ar
    48    27    35   ar
    49    28    32   ar
    50    29    36   ar
    51    29    48    1
    52    30    37   ar
    53    30    49    1
    54    31    33   ar
    55    31    50    1
    56    32    33   ar
    57    32    51    1
    58    34    39   ar
    59    34    52    1
    60    35    40   ar
    61    35    53    1
    62    36    38   ar
    63    36    54    1
    64    37    38   ar
    65    37    55    1
    66    39    41   ar
    67    40    41   ar
    68    40    58    1
