@<TRIPOS>MOLECULE
IMPHY003454
 105 111 0 0 0
SMALL
GASTEIGER

@<TRIPOS>ATOM
      1 O           6.0022   -3.3027    0.0000 O.3     1  UNL1       -0.3449
      2 O          12.5948   -2.5496    0.0000 O.3     1  UNL1       -0.3837
      3 O          13.9058   -0.7709    0.0000 O.2     1  UNL1       -0.2943
      4 O           5.1304   -1.8061    0.0000 O.3     1  UNL1       -0.3461
      5 O          13.2584    2.9240    0.0000 O.3     1  UNL1       -0.4588
      6 O          15.6499    3.0353    0.0000 O.3     1  UNL1       -0.3615
      7 O           4.2740   -4.3094    0.0000 O.3     1  UNL1       -0.3841
      8 O           2.5381   -3.3161    0.0000 O.3     1  UNL1       -0.3864
      9 O           2.5304   -1.3161    0.0000 O.3     1  UNL1       -0.3869
     10 O          14.5564    4.0707    0.0000 O.2     1  UNL1       -0.2512
     11 C           9.5323   -1.2786    0.0000 C.3     1  UNL1       -0.0193
     12 C           8.6663   -1.7786    0.0000 C.3     1  UNL1       -0.0193
     13 C           8.6660   -0.7782    0.0000 C.3     1  UNL1       -0.0401
     14 C          10.3984   -1.7786    0.0000 C.3     1  UNL1       -0.0262
     15 C           8.6663   -2.7786    0.0000 C.3     1  UNL1       -0.0273
     16 C          11.3084   -1.2718    0.0000 C.3     1  UNL1        0.0102
     17 C           9.5163   -0.2371    0.0000 C.3     1  UNL1       -0.0460
     18 C          11.3164   -0.2301    0.0000 C.3     1  UNL1       -0.0138
     19 C           7.7724   -1.2439    0.0000 C.3     1  UNL1       -0.0442
     20 C          10.3984   -2.7786    0.0000 C.3     1  UNL1       -0.0488
     21 C           9.5323   -3.2786    0.0000 C.3     1  UNL1       -0.0488
     22 C           7.7724   -3.3133    0.0000 C.3     1  UNL1       -0.0052
     23 C          10.4143    0.2907    0.0000 C.3     1  UNL1       -0.0458
     24 C          12.2915   -1.5968    0.0000 C.3     1  UNL1        0.1194
     25 C          12.3044    0.0797    0.0000 C.3     1  UNL1        0.0288
     26 C           6.8663   -1.7578    0.0000 C.3     1  UNL1       -0.0255
     27 C           6.8663   -2.7994    0.0000 C.3     1  UNL1        0.0672
     28 C          11.3006   -2.2717    0.0000 C.3     1  UNL1       -0.0560
     29 C          12.9058   -0.7632    0.0000 C.2     1  UNL1        0.1659
     30 C          11.3241    0.7698    0.0000 C.3     1  UNL1       -0.0583
     31 C           7.2824   -4.1850    0.0000 C.3     1  UNL1       -0.0572
     32 C           8.2823   -4.1734    0.0000 C.3     1  UNL1       -0.0572
     33 C          12.6224    1.0278    0.0000 C.3     1  UNL1       -0.0303
     34 C          13.6025    1.2264    0.0000 C.3     1  UNL1       -0.0098
     35 C          11.9603    1.7772    0.0000 C.3     1  UNL1       -0.0616
     36 C           5.1343   -2.8061    0.0000 C.3     1  UNL1        0.1878
     37 C          13.9204    2.1745    0.0000 C.3     1  UNL1        0.1320
     38 C           4.2702   -3.3094    0.0000 C.3     1  UNL1        0.1341
     39 C          14.9005    2.3732    0.0000 C.3     1  UNL1        0.1245
     40 C          15.8486    2.0552    0.0000 C.3     1  UNL1        0.0941
     41 C           3.4022   -2.8128    0.0000 C.3     1  UNL1        0.1137
     42 C           4.2625   -1.3094    0.0000 C.3     1  UNL1        0.0792
     43 C           3.3984   -1.8128    0.0000 C.3     1  UNL1        0.1069
     44 C          16.8287    2.2539    0.0000 C.3     1  UNL1       -0.0335
     45 C          15.5306    1.1071    0.0000 C.3     1  UNL1       -0.0335
     46 C          13.5763    3.8720    0.0000 C.2     1  UNL1        0.3043
     47 C          12.9143    4.6215    0.0000 C.3     1  UNL1        0.0332
     48 H           8.8782   -0.1956    0.0000 H       1  UNL1        0.0276
     49 H           8.0555   -0.6705    0.0000 H       1  UNL1        0.0276
     50 H          10.9329   -2.0927    0.0000 H       1  UNL1        0.0313
     51 H           8.6729   -3.6286    0.0000 H       1  UNL1        0.0312
     52 H           9.2982    0.3433    0.0000 H       1  UNL1        0.0271
     53 H           8.9071   -0.3526    0.0000 H       1  UNL1        0.0271
     54 H           8.1770   -0.7741    0.0000 H       1  UNL1        0.0272
     55 H           7.3787   -0.7649    0.0000 H       1  UNL1        0.0272
     56 H          10.6104   -3.3612    0.0000 H       1  UNL1        0.0268
     57 H          11.0089   -2.6709    0.0000 H       1  UNL1        0.0268
     58 H           9.1338   -3.7535    0.0000 H       1  UNL1        0.0268
     59 H           9.9309   -3.7535    0.0000 H       1  UNL1        0.0268
     60 H          10.8116    0.7666    0.0000 H       1  UNL1        0.0271
     61 H          10.0133    0.7636    0.0000 H       1  UNL1        0.0271
     62 H          11.8507   -2.0327    0.0000 H       1  UNL1        0.0679
     63 H          13.1451    0.2051    0.0000 H       1  UNL1        0.0386
     64 H           6.6572   -1.1741    0.0000 H       1  UNL1        0.0290
     65 H           6.2554   -1.8639    0.0000 H       1  UNL1        0.0290
     66 H           6.3288   -2.4904    0.0000 H       1  UNL1        0.0602
     67 H          10.6807   -2.2669    0.0000 H       1  UNL1        0.0236
     68 H          11.2959   -2.8917    0.0000 H       1  UNL1        0.0236
     69 H          11.9206   -2.2765    0.0000 H       1  UNL1        0.0236
     70 H          11.9441    0.7650    0.0000 H       1  UNL1        0.0235
     71 H          11.3289    1.3898    0.0000 H       1  UNL1        0.0235
     72 H          10.7041    0.7746    0.0000 H       1  UNL1        0.0235
     73 H           7.7490   -4.4896    0.0000 H       1  UNL1        0.0236
     74 H           8.5985   -4.7068    0.0000 H       1  UNL1        0.0236
     75 H           8.8157   -3.8572    0.0000 H       1  UNL1        0.0236
     76 H           6.7419   -3.8812    0.0000 H       1  UNL1        0.0236
     77 H           6.9786   -4.7255    0.0000 H       1  UNL1        0.0236
     78 H           7.8229   -4.4888    0.0000 H       1  UNL1        0.0236
     79 H          12.0148    0.9046    0.0000 H       1  UNL1        0.0306
     80 H          13.2005   -2.6822    0.0000 H       1  UNL1        0.2104
     81 H          13.6182    0.6066    0.0000 H       1  UNL1        0.0304
     82 H          14.2156    1.1344    0.0000 H       1  UNL1        0.0304
     83 H          12.4250    2.1877    0.0000 H       1  UNL1        0.0233
     84 H          11.5498    2.2418    0.0000 H       1  UNL1        0.0233
     85 H          11.4957    1.3667    0.0000 H       1  UNL1        0.0233
     86 H           5.1367   -3.4261    0.0000 H       1  UNL1        0.0937
     87 H          14.1176    2.7624    0.0000 H       1  UNL1        0.0761
     88 H           3.7344   -3.6215    0.0000 H       1  UNL1        0.0671
     89 H          14.5218    3.1342    0.0000 H       1  UNL1        0.0662
     90 H           2.8641   -2.5048    0.0000 H       1  UNL1        0.0647
     91 H           4.6592   -0.8330    0.0000 H       1  UNL1        0.0587
     92 H           3.8621   -0.8360    0.0000 H       1  UNL1        0.0587
     93 H           3.3960   -1.1928    0.0000 H       1  UNL1        0.0643
     94 H           3.7383   -4.6215    0.0000 H       1  UNL1        0.2101
     95 H          16.9518    1.6462    0.0000 H       1  UNL1        0.0258
     96 H          17.4363    2.3771    0.0000 H       1  UNL1        0.0258
     97 H          16.7055    2.8615    0.0000 H       1  UNL1        0.0258
     98 H          14.9428    1.3043    0.0000 H       1  UNL1        0.0258
     99 H          15.3335    0.5193    0.0000 H       1  UNL1        0.0258
    100 H          16.1184    0.9100    0.0000 H       1  UNL1        0.0258
    101 H           2.0000   -3.0082    0.0000 H       1  UNL1        0.2100
    102 H           2.5280   -0.6961    0.0000 H       1  UNL1        0.2100
    103 H          13.3789    5.0320    0.0000 H       1  UNL1        0.0342
    104 H          12.5038    5.0861    0.0000 H       1  UNL1        0.0342
    105 H          12.4496    4.2110    0.0000 H       1  UNL1        0.0342
@<TRIPOS>BOND
     1    27     1    1
     2     1    36    1
     3    24     2    1
     4     2    80    1
     5     3    29    2
     6     4    36    1
     7     4    42    1
     8    37     5    1
     9     5    46    1
    10     6    39    1
    11     6    40    1
    12     7    38    1
    13     7    94    1
    14     8    41    1
    15     8   101    1
    16     9    43    1
    17     9   102    1
    18    10    46    2
    19    11    12    1
    20    11    13    1
    21    11    14    1
    22    11    17    1
    23    12    13    1
    24    12    15    1
    25    12    19    1
    26    13    48    1
    27    13    49    1
    28    14    16    1
    29    14    20    1
    30    14    50    1
    31    15    21    1
    32    15    22    1
    33    15    51    1
    34    16    18    1
    35    16    24    1
    36    16    28    1
    37    17    23    1
    38    17    52    1
    39    17    53    1
    40    18    23    1
    41    18    25    1
    42    18    30    1
    43    19    26    1
    44    19    54    1
    45    19    55    1
    46    20    21    1
    47    20    56    1
    48    20    57    1
    49    21    58    1
    50    21    59    1
    51    22    27    1
    52    22    31    1
    53    22    32    1
    54    23    60    1
    55    23    61    1
    56    24    29    1
    57    24    62    1
    58    25    29    1
    59    25    33    1
    60    25    63    1
    61    26    27    1
    62    26    64    1
    63    26    65    1
    64    27    66    1
    65    28    67    1
    66    28    68    1
    67    28    69    1
    68    30    70    1
    69    30    71    1
    70    30    72    1
    71    31    76    1
    72    31    77    1
    73    31    78    1
    74    32    73    1
    75    32    74    1
    76    32    75    1
    77    33    34    1
    78    33    35    1
    79    33    79    1
    80    34    37    1
    81    34    81    1
    82    34    82    1
    83    35    83    1
    84    35    84    1
    85    35    85    1
    86    36    38    1
    87    36    86    1
    88    37    39    1
    89    37    87    1
    90    38    41    1
    91    38    88    1
    92    39    40    1
    93    39    89    1
    94    40    44    1
    95    40    45    1
    96    41    43    1
    97    41    90    1
    98    42    43    1
    99    42    91    1
   100    42    92    1
   101    43    93    1
   102    44    95    1
   103    44    96    1
   104    44    97    1
   105    45    98    1
   106    45    99    1
   107    45   100    1
   108    46    47    1
   109    47   103    1
   110    47   104    1
   111    47   105    1
