@<TRIPOS>MOLECULE
IMPHY001001
 44 48 0 0 0
SMALL
GASTEIGER

@<TRIPOS>ATOM
      1 O           6.9742    0.6997    0.0000 O.3     1  UNL1       -0.4518
      2 O           6.9742    2.3091    0.0000 O.3     1  UNL1       -0.4489
      3 O           5.1619    3.5044    0.0000 O.3     1  UNL1       -0.4910
      4 O           7.0184   -2.6326    0.0000 O.3     1  UNL1       -0.4914
      5 O           5.2151   -3.6923    0.0000 O.3     1  UNL1       -0.5033
      6 N           2.5466    1.0258    0.0000 N.3     1  UNL1       -0.3087
      7 C           3.3859    0.4975    0.0000 C.3     1  UNL1        0.0379
      8 C           4.2959    1.0044    0.0000 C.ar    1  UNL1       -0.0121
      9 C           3.3779   -0.5441    0.0000 C.3     1  UNL1       -0.0074
     10 C           4.2959    2.0044    0.0000 C.ar    1  UNL1        0.0046
     11 C           5.1619    0.5044    0.0000 C.ar    1  UNL1        0.0331
     12 C           3.4377    2.5013    0.0000 C.3     1  UNL1       -0.0112
     13 C           2.5722    2.0172    0.0000 C.3     1  UNL1        0.0006
     14 C           4.2799   -1.0649    0.0000 C.ar    1  UNL1       -0.0341
     15 C           5.1780   -0.5371    0.0000 C.ar    1  UNL1       -0.0070
     16 C           6.0279    1.0044    0.0000 C.ar    1  UNL1        0.1779
     17 C           5.1619    2.5044    0.0000 C.ar    1  UNL1        0.1688
     18 C           6.0279    2.0044    0.0000 C.ar    1  UNL1        0.2084
     19 C           4.2716   -2.1498    0.0000 C.ar    1  UNL1       -0.0127
     20 C           6.1299   -1.0577    0.0000 C.ar    1  UNL1       -0.0082
     21 C           6.1466   -2.1426    0.0000 C.ar    1  UNL1        0.1619
     22 C           5.2112   -2.6923    0.0000 C.ar    1  UNL1        0.1587
     23 C           7.5578    1.5044    0.0000 C.3     1  UNL1        0.2334
     24 C           6.0279    4.0044    0.0000 C.3     1  UNL1        0.0790
     25 C           7.0299   -3.6325    0.0000 C.3     1  UNL1        0.0790
     26 H           2.6402    0.0895    0.0000 H       1  UNL1        0.0513
     27 H           2.7678   -0.4333    0.0000 H       1  UNL1        0.0332
     28 H           3.1643   -1.1261    0.0000 H       1  UNL1        0.0332
     29 H           3.8387    2.9741    0.0000 H       1  UNL1        0.0327
     30 H           3.0436    2.9800    0.0000 H       1  UNL1        0.0327
     31 H           2.0000    0.7331    0.0000 H       1  UNL1        0.1225
     32 H           2.3704    2.6034    0.0000 H       1  UNL1        0.0427
     33 H           1.9594    1.9228    0.0000 H       1  UNL1        0.0427
     34 H           3.7334   -2.4578    0.0000 H       1  UNL1        0.0658
     35 H           6.6608   -0.7375    0.0000 H       1  UNL1        0.0661
     36 H           8.0186    1.0897    0.0000 H       1  UNL1        0.1166
     37 H           8.0186    1.9191    0.0000 H       1  UNL1        0.1166
     38 H           6.3379    3.4674    0.0000 H       1  UNL1        0.0660
     39 H           6.5649    4.3144    0.0000 H       1  UNL1        0.0660
     40 H           5.7179    4.5413    0.0000 H       1  UNL1        0.0660
     41 H           4.6793   -4.0044    0.0000 H       1  UNL1        0.2923
     42 H           6.4100   -3.6397    0.0000 H       1  UNL1        0.0660
     43 H           7.0371   -4.2524    0.0000 H       1  UNL1        0.0660
     44 H           7.6499   -3.6253    0.0000 H       1  UNL1        0.0660
@<TRIPOS>BOND
     1     1    16    1
     2     1    23    1
     3     2    18    1
     4     2    23    1
     5     3    17    1
     6     3    24    1
     7     4    21    1
     8     4    25    1
     9     5    22    1
    10     5    41    1
    11     6     7    1
    12     6    13    1
    13     6    31    1
    14     7     8    1
    15     7     9    1
    16     7    26    1
    17     8    10   ar
    18     8    11   ar
    19     9    14    1
    20     9    27    1
    21     9    28    1
    22    10    12    1
    23    10    17   ar
    24    11    15    1
    25    11    16   ar
    26    12    13    1
    27    12    29    1
    28    12    30    1
    29    13    32    1
    30    13    33    1
    31    14    15   ar
    32    14    19   ar
    33    15    20   ar
    34    16    18   ar
    35    17    18   ar
    36    19    22   ar
    37    19    34    1
    38    20    21   ar
    39    20    35    1
    40    21    22   ar
    41    23    36    1
    42    23    37    1
    43    24    38    1
    44    24    39    1
    45    24    40    1
    46    25    42    1
    47    25    43    1
    48    25    44    1
