@<TRIPOS>MOLECULE
IMPHY005914
 50 52 0 0 0
SMALL
GASTEIGER

@<TRIPOS>ATOM
      1 O           4.5787   -0.1811    0.0000 O.3     1  UNL1       -0.4518
      2 O           5.4045    3.2628    0.0000 O.co2   1  UNL1       -0.7743
      3 O           7.1188   -0.6699    0.0000 O.3     1  UNL1       -0.4580
      4 O           6.5309   -3.1024    0.0000 O.3     1  UNL1       -0.3774
      5 O           2.8660   -0.1699    0.0000 O.2     1  UNL1       -0.2453
      6 O           7.9848   -2.1476    0.0000 O.2     1  UNL1       -0.2476
      7 N           5.4255    2.2630    0.0000 N.3     1  UNL1        0.2280
      8 C           5.4255    1.2854    0.0000 C.3     1  UNL1        0.0418
      9 C           4.5787    0.7966    0.0000 C.3     1  UNL1        0.1543
     10 C           4.4056    2.5075    0.0000 C.3     1  UNL1       -0.0280
     11 C           3.8842    1.7253    0.0000 C.3     1  UNL1        0.0303
     12 C           6.3609    2.5292    0.0000 C.3     1  UNL1       -0.0125
     13 C           6.2721    0.7966    0.0000 C.2     1  UNL1        0.0194
     14 C           6.9692    1.7253    0.0000 C.2     1  UNL1       -0.0317
     15 C           6.2721   -0.1811    0.0000 C.3     1  UNL1        0.1191
     16 C           3.7320   -0.6699    0.0000 C.2     1  UNL1        0.3353
     17 C           5.4255   -1.6476    0.0000 C.3     1  UNL1       -0.0006
     18 C           6.2721   -2.1364    0.0000 C.3     1  UNL1        0.1620
     19 C           4.5787   -2.1364    0.0000 C.3     1  UNL1       -0.0155
     20 C           3.7320   -1.6476    0.0000 C.2     1  UNL1        0.0328
     21 C           7.1188   -1.6476    0.0000 C.2     1  UNL1        0.3394
     22 C           5.4255   -0.6476    0.0000 C.3     1  UNL1       -0.0590
     23 C           5.5651   -2.8436    0.0000 C.3     1  UNL1       -0.0253
     24 C           2.8660   -2.1476    0.0000 C.2     1  UNL1       -0.0771
     25 C           2.0000   -1.6476    0.0000 C.3     1  UNL1       -0.0461
     26 H           5.4255    0.4354    0.0000 H       1  UNL1        0.0938
     27 H           3.7721    0.5283    0.0000 H       1  UNL1        0.0797
     28 H           4.6198    3.0893    0.0000 H       1  UNL1        0.0815
     29 H           3.8529    2.7885    0.0000 H       1  UNL1        0.0815
     30 H           3.4106    2.1255    0.0000 H       1  UNL1        0.0355
     31 H           3.4329    1.3002    0.0000 H       1  UNL1        0.0355
     32 H           6.8976    2.8395    0.0000 H       1  UNL1        0.0861
     33 H           6.1190    3.1000    0.0000 H       1  UNL1        0.0861
     34 H           7.5892    1.7266    0.0000 H       1  UNL1        0.0627
     35 H           5.6615   -0.0734    0.0000 H       1  UNL1        0.0747
     36 H           6.0601   -0.7637    0.0000 H       1  UNL1        0.0747
     37 H           5.9624   -1.3376    0.0000 H       1  UNL1        0.0334
     38 H           4.1802   -2.6114    0.0000 H       1  UNL1        0.0319
     39 H           4.9772   -2.6114    0.0000 H       1  UNL1        0.0319
     40 H           6.0455   -0.6476    0.0000 H       1  UNL1        0.0234
     41 H           5.4254   -0.0276    0.0000 H       1  UNL1        0.0234
     42 H           4.8055   -0.6476    0.0000 H       1  UNL1        0.0234
     43 H           5.1266   -2.4052    0.0000 H       1  UNL1        0.0263
     44 H           5.1267   -3.2820    0.0000 H       1  UNL1        0.0263
     45 H           6.0035   -3.2820    0.0000 H       1  UNL1        0.0263
     46 H           2.8660   -2.7676    0.0000 H       1  UNL1        0.0574
     47 H           7.1298   -3.2628    0.0000 H       1  UNL1        0.2109
     48 H           2.3100   -1.1107    0.0000 H       1  UNL1        0.0272
     49 H           1.4631   -1.3376    0.0000 H       1  UNL1        0.0272
     50 H           1.6900   -2.1846    0.0000 H       1  UNL1        0.0272
@<TRIPOS>UNITY_ATOM_ATTR
2 1
charge -1
7 1
charge 1
@<TRIPOS>BOND
     1     1     9    1
     2     1    16    1
     3     2     7    1
     4     3    15    1
     5     3    21    1
     6    18     4    1
     7     4    47    1
     8     5    16    2
     9     6    21    2
    10     7     8    1
    11     7    10    1
    12     7    12    1
    13     8     9    1
    14     8    13    1
    15     8    26    1
    16     9    11    1
    17     9    27    1
    18    10    11    1
    19    10    28    1
    20    10    29    1
    21    11    30    1
    22    11    31    1
    23    12    14    1
    24    12    32    1
    25    12    33    1
    26    13    14    2
    27    13    15    1
    28    14    34    1
    29    15    35    1
    30    15    36    1
    31    16    20    1
    32    17    18    1
    33    17    19    1
    34    17    22    1
    35    17    37    1
    36    18    21    1
    37    18    23    1
    38    19    20    1
    39    19    38    1
    40    19    39    1
    41    20    24    2
    42    22    40    1
    43    22    41    1
    44    22    42    1
    45    23    43    1
    46    23    44    1
    47    23    45    1
    48    24    25    1
    49    24    46    1
    50    25    48    1
    51    25    49    1
    52    25    50    1
