@<TRIPOS>MOLECULE
IMPHY008286
 40 40 0 0 0
SMALL
GASTEIGER

@<TRIPOS>ATOM
      1 O           4.5981    3.8450    0.0000 O.3     1  UNL1       -0.3851
      2 C           2.8660   -1.1550    0.0000 C.3     1  UNL1       -0.0161
      3 C           2.0000   -1.6550    0.0000 C.3     1  UNL1       -0.0425
      4 C           3.7320   -1.6550    0.0000 C.3     1  UNL1       -0.0280
      5 C           2.0000   -2.6550    0.0000 C.3     1  UNL1       -0.0315
      6 C           2.8660   -0.1550    0.0000 C.2     1  UNL1       -0.0695
      7 C           2.8660   -3.1550    0.0000 C.2     1  UNL1       -0.0765
      8 C           3.7320   -2.6550    0.0000 C.2     1  UNL1       -0.0845
      9 C           3.7320    0.3450    0.0000 C.3     1  UNL1       -0.0134
     10 C           2.8660   -4.1550    0.0000 C.3     1  UNL1       -0.0438
     11 C           2.0000    0.3450    0.0000 C.2     1  UNL1       -0.0989
     12 C           3.7320    1.3450    0.0000 C.2     1  UNL1       -0.0813
     13 C           4.5981    2.8450    0.0000 C.3     1  UNL1        0.0786
     14 C           4.5981    1.8450    0.0000 C.2     1  UNL1       -0.0570
     15 C           5.5981    2.8450    0.0000 C.3     1  UNL1       -0.0327
     16 C           3.5981    2.8450    0.0000 C.3     1  UNL1       -0.0327
     17 H           3.4030   -0.8450    0.0000 H       1  UNL1        0.0349
     18 H           1.7880   -1.0724    0.0000 H       1  UNL1        0.0274
     19 H           1.3894   -1.7627    0.0000 H       1  UNL1        0.0274
     20 H           4.3426   -1.7627    0.0000 H       1  UNL1        0.0313
     21 H           3.9441   -1.0724    0.0000 H       1  UNL1        0.0313
     22 H           1.3894   -2.5473    0.0000 H       1  UNL1        0.0310
     23 H           1.7880   -3.2376    0.0000 H       1  UNL1        0.0310
     24 H           4.2690   -2.9650    0.0000 H       1  UNL1        0.0572
     25 H           3.9441   -0.2376    0.0000 H       1  UNL1        0.0352
     26 H           4.3426    0.4527    0.0000 H       1  UNL1        0.0352
     27 H           2.2460   -4.1550    0.0000 H       1  UNL1        0.0274
     28 H           2.8660   -4.7750    0.0000 H       1  UNL1        0.0274
     29 H           3.4860   -4.1550    0.0000 H       1  UNL1        0.0274
     30 H           3.1951    1.6550    0.0000 H       1  UNL1        0.0573
     31 H           2.0000    0.9650    0.0000 H       1  UNL1        0.0535
     32 H           1.4631    0.0350    0.0000 H       1  UNL1        0.0535
     33 H           5.1350    1.5350    0.0000 H       1  UNL1        0.0597
     34 H           5.5981    2.2250    0.0000 H       1  UNL1        0.0260
     35 H           6.2181    2.8450    0.0000 H       1  UNL1        0.0260
     36 H           5.5981    3.4650    0.0000 H       1  UNL1        0.0260
     37 H           3.5981    3.4650    0.0000 H       1  UNL1        0.0260
     38 H           2.9781    2.8450    0.0000 H       1  UNL1        0.0260
     39 H           3.5981    2.2250    0.0000 H       1  UNL1        0.0260
     40 H           5.1350    4.1550    0.0000 H       1  UNL1        0.2106
@<TRIPOS>BOND
     1     1    13    1
     2     1    40    1
     3     2     3    1
     4     2     4    1
     5     2     6    1
     6     2    17    1
     7     3     5    1
     8     3    18    1
     9     3    19    1
    10     4     8    1
    11     4    20    1
    12     4    21    1
    13     5     7    1
    14     5    22    1
    15     5    23    1
    16     6     9    1
    17     6    11    2
    18     7     8    2
    19     7    10    1
    20     8    24    1
    21     9    12    1
    22     9    25    1
    23     9    26    1
    24    10    27    1
    25    10    28    1
    26    10    29    1
    27    11    31    1
    28    11    32    1
    29    12    14    2
    30    12    30    1
    31    13    14    1
    32    13    15    1
    33    13    16    1
    34    14    33    1
    35    15    34    1
    36    15    35    1
    37    15    36    1
    38    16    37    1
    39    16    38    1
    40    16    39    1
