@<TRIPOS>MOLECULE
IMPHY016197
 24 25 0 0 0
SMALL
GASTEIGER

@<TRIPOS>ATOM
      1 C           4.5981   -0.0000    0.0000 C.ar    1  UNL1       -0.0147
      2 C           4.5981    1.0000    0.0000 C.ar    1  UNL1       -0.0176
      3 C           5.4920   -0.5347    0.0000 C.ar    1  UNL1       -0.0427
      4 C           3.7320   -0.5000    0.0000 C.ar    1  UNL1       -0.0509
      5 C           2.8660   -0.0000    0.0000 C.ar    1  UNL1       -0.0498
      6 C           3.7320    1.5000    0.0000 C.ar    1  UNL1       -0.0538
      7 C           5.4920    1.5346    0.0000 C.ar    1  UNL1       -0.0540
      8 C           2.8660    1.0000    0.0000 C.ar    1  UNL1       -0.0582
      9 C           6.3981   -0.0208    0.0000 C.ar    1  UNL1       -0.0582
     10 C           6.3981    1.0208    0.0000 C.ar    1  UNL1       -0.0609
     11 C           5.4804   -1.5346    0.0000 C.3     1  UNL1       -0.0391
     12 C           2.0000   -0.5000    0.0000 C.3     1  UNL1       -0.0397
     13 H           3.7320   -1.1200    0.0000 H       1  UNL1        0.0626
     14 H           3.7320    2.1200    0.0000 H       1  UNL1        0.0624
     15 H           5.4848    2.1546    0.0000 H       1  UNL1        0.0624
     16 H           2.3291    1.3100    0.0000 H       1  UNL1        0.0620
     17 H           6.9338   -0.3329    0.0000 H       1  UNL1        0.0620
     18 H           6.9338    1.3328    0.0000 H       1  UNL1        0.0618
     19 H           4.8605   -1.5275    0.0000 H       1  UNL1        0.0278
     20 H           5.4733   -2.1546    0.0000 H       1  UNL1        0.0278
     21 H           6.1004   -1.5418    0.0000 H       1  UNL1        0.0278
     22 H           1.6900    0.0369    0.0000 H       1  UNL1        0.0278
     23 H           1.4631   -0.8100    0.0000 H       1  UNL1        0.0278
     24 H           2.3100   -1.0370    0.0000 H       1  UNL1        0.0278
@<TRIPOS>BOND
     1     1     2   ar
     2     1     3   ar
     3     1     4   ar
     4     2     6   ar
     5     2     7   ar
     6     3     9   ar
     7     3    11    1
     8     4     5   ar
     9     4    13    1
    10     5     8   ar
    11     5    12    1
    12     6     8   ar
    13     6    14    1
    14     7    10   ar
    15     7    15    1
    16     8    16    1
    17     9    10   ar
    18     9    17    1
    19    10    18    1
    20    11    19    1
    21    11    20    1
    22    11    21    1
    23    12    22    1
    24    12    23    1
    25    12    24    1
