@<TRIPOS>MOLECULE
IMPHY006462
 47 52 0 0 0
SMALL
GASTEIGER

@<TRIPOS>ATOM
      1 O           3.8076    1.8817    0.0000 O.3     1  UNL1       -0.3905
      2 N           6.1798   -0.2724    0.0000 N.3     1  UNL1       -0.2904
      3 N           4.0899   -1.2279    0.0000 N.pl3   1  UNL1       -0.3272
      4 C           4.5153    0.0814    0.0000 C.3     1  UNL1        0.0450
      5 C           6.4862    1.1691    0.0000 C.3     1  UNL1        0.0082
      6 C           5.9169    0.5368    0.0000 C.3     1  UNL1        0.0178
      7 C           4.7782   -0.7278    0.0000 C.3     1  UNL1        0.0509
      8 C           5.6105   -0.9047    0.0000 C.3     1  UNL1        0.0310
      9 C           4.5142    1.1740    0.0000 C.3     1  UNL1        0.0714
     10 C           5.0846    0.7137    0.0000 C.3     1  UNL1       -0.0231
     11 C           6.7056   -1.8908    0.0000 C.3     1  UNL1       -0.0106
     12 C           5.8734   -1.7139    0.0000 C.3     1  UNL1       -0.0286
     13 C           3.6645    0.0814    0.0000 C.ar    1  UNL1       -0.0159
     14 C           7.0121   -0.4493    0.0000 C.3     1  UNL1        0.0209
     15 C           7.2750   -1.2585    0.0000 C.2     1  UNL1       -0.0562
     16 C           3.4016   -0.7278    0.0000 C.ar    1  UNL1        0.0336
     17 C           3.0952    0.7137    0.0000 C.ar    1  UNL1       -0.0561
     18 C           4.0983   -2.2278    0.0000 C.3     1  UNL1        0.0011
     19 C           8.2531   -1.4664    0.0000 C.2     1  UNL1       -0.0864
     20 C           2.5693   -0.9047    0.0000 C.ar    1  UNL1       -0.0404
     21 C           2.2629    0.5368    0.0000 C.ar    1  UNL1       -0.0614
     22 C           2.0000   -0.2724    0.0000 C.ar    1  UNL1       -0.0600
     23 C           8.5621   -2.4174    0.0000 C.3     1  UNL1       -0.0465
     24 H           7.0661    1.7906    0.0000 H       1  UNL1        0.0347
     25 H           5.7347    1.3671    0.0000 H       1  UNL1        0.0467
     26 H           4.6312   -1.5650    0.0000 H       1  UNL1        0.0525
     27 H           5.1601   -1.6255    0.0000 H       1  UNL1        0.0481
     28 H           4.7523    1.7465    0.0000 H       1  UNL1        0.0606
     29 H           5.3169    1.2886    0.0000 H       1  UNL1        0.0290
     30 H           4.5588    1.0423    0.0000 H       1  UNL1        0.0290
     31 H           6.9683   -2.6992    0.0000 H       1  UNL1        0.0350
     32 H           5.2594   -1.8002    0.0000 H       1  UNL1        0.0287
     33 H           5.8518   -2.3335    0.0000 H       1  UNL1        0.0287
     34 H           7.6260   -0.3630    0.0000 H       1  UNL1        0.0473
     35 H           7.0337    0.1704    0.0000 H       1  UNL1        0.0473
     36 H           3.9684    2.4804    0.0000 H       1  UNL1        0.2098
     37 H           3.2868    1.3034    0.0000 H       1  UNL1        0.0621
     38 H           3.4784   -2.2331    0.0000 H       1  UNL1        0.0428
     39 H           4.1036   -2.8478    0.0000 H       1  UNL1        0.0428
     40 H           4.7183   -2.2226    0.0000 H       1  UNL1        0.0428
     41 H           8.6680   -1.0056    0.0000 H       1  UNL1        0.0569
     42 H           2.3777   -1.4943    0.0000 H       1  UNL1        0.0636
     43 H           1.8481    0.9976    0.0000 H       1  UNL1        0.0618
     44 H           1.3936   -0.4013    0.0000 H       1  UNL1        0.0618
     45 H           7.9725   -2.6090    0.0000 H       1  UNL1        0.0272
     46 H           8.7537   -3.0071    0.0000 H       1  UNL1        0.0272
     47 H           9.1518   -2.2259    0.0000 H       1  UNL1        0.0272
@<TRIPOS>BOND
     1     9     1    1
     2     1    36    1
     3     2     6    1
     4     2     8    1
     5     2    14    1
     6     3     7    1
     7     3    16    1
     8     3    18    1
     9     4     7    1
    10     4     9    1
    11     4    10    1
    12     4    13    1
    13     5     6    1
    14     5     9    1
    15     5    11    1
    16     5    24    1
    17     6    10    1
    18     6    25    1
    19     7     8    1
    20     7    26    1
    21     8    12    1
    22     8    27    1
    23     9    28    1
    24    10    29    1
    25    10    30    1
    26    11    12    1
    27    11    15    1
    28    11    31    1
    29    12    32    1
    30    12    33    1
    31    13    16   ar
    32    13    17   ar
    33    14    15    1
    34    14    34    1
    35    14    35    1
    36    15    19    2
    37    16    20   ar
    38    17    21   ar
    39    17    37    1
    40    18    38    1
    41    18    39    1
    42    18    40    1
    43    19    23    1
    44    19    41    1
    45    20    22   ar
    46    20    42    1
    47    21    22   ar
    48    21    43    1
    49    22    44    1
    50    23    45    1
    51    23    46    1
    52    23    47    1
