@<TRIPOS>MOLECULE
IMPHY000883
 67 70 0 0 0
SMALL
GASTEIGER

@<TRIPOS>ATOM
      1 O           8.0522   -0.7633    0.0000 O.3     1  UNL1       -0.4513
      2 O           6.9520   -2.2922    0.0000 O.3     1  UNL1       -0.4510
      3 O           9.7769   -2.8541    0.0000 O.3     1  UNL1       -0.3846
      4 O           9.5181   -0.4740    0.0000 O.3     1  UNL1       -0.4584
      5 O           9.3176   -3.4771    0.0000 O.3     1  UNL1       -0.3807
      6 O           9.5484    0.0155    0.0000 O.2     1  UNL1       -0.2449
      7 O           8.9890   -4.9468    0.0000 O.2     1  UNL1       -0.2982
      8 O           6.8038    3.1373    0.0000 O.3     1  UNL1       -0.5028
      9 O           7.6644    3.6341    0.0000 O.3     1  UNL1       -0.5028
     10 O           8.6248    1.2114    0.0000 O.2     1  UNL1       -0.2449
     11 O           6.7259   -4.0094    0.0000 O.2     1  UNL1       -0.2449
     12 O           5.0220    2.1268    0.0000 O.3     1  UNL1       -0.5009
     13 O           5.0220    0.0785    0.0000 O.3     1  UNL1       -0.5032
     14 O           9.4303    4.6719    0.0000 O.3     1  UNL1       -0.5009
     15 O          11.2042    3.6478    0.0000 O.3     1  UNL1       -0.5032
     16 O           3.1428   -4.4112    0.0000 O.3     1  UNL1       -0.5032
     17 O           3.5950   -0.9767    0.0000 O.3     1  UNL1       -0.5032
     18 O           2.3774   -2.5634    0.0000 O.3     1  UNL1       -0.5009
     19 C           8.5522   -1.6294    0.0000 C.3     1  UNL1        0.1717
     20 C           7.9434   -2.4227    0.0000 C.3     1  UNL1        0.1748
     21 C           9.5181   -1.8882    0.0000 C.3     1  UNL1        0.1296
     22 C           8.3261   -3.3466    0.0000 C.3     1  UNL1        0.1502
     23 C          10.2252   -1.1811    0.0000 C.3     1  UNL1        0.1222
     24 C           8.5522    0.1027    0.0000 C.2     1  UNL1        0.3405
     25 C           7.6862    0.6027    0.0000 C.ar    1  UNL1        0.0740
     26 C           7.6862    1.6027    0.0000 C.ar    1  UNL1        0.0458
     27 C           8.5522    2.1027    0.0000 C.ar    1  UNL1        0.0458
     28 C           8.1956   -4.3380    0.0000 C.2     1  UNL1        0.1524
     29 C           9.4182    1.6027    0.0000 C.ar    1  UNL1        0.0740
     30 C           9.4182    0.6027    0.0000 C.2     1  UNL1        0.3401
     31 C           6.3432   -3.0856    0.0000 C.2     1  UNL1        0.3399
     32 C           6.7922    2.1374    0.0000 C.ar    1  UNL1        0.1708
     33 C           6.7922    0.0680    0.0000 C.ar    1  UNL1       -0.0017
     34 C           8.5361    3.1442    0.0000 C.ar    1  UNL1        0.1708
     35 C          10.3282    2.1095    0.0000 C.ar    1  UNL1       -0.0017
     36 C           5.8862    1.6235    0.0000 C.ar    1  UNL1        0.2012
     37 C           5.8862    0.5819    0.0000 C.ar    1  UNL1        0.1628
     38 C           5.3518   -2.9550    0.0000 C.ar    1  UNL1        0.0661
     39 C           9.4342    3.6720    0.0000 C.ar    1  UNL1        0.2012
     40 C          10.3362    3.1511    0.0000 C.ar    1  UNL1        0.1628
     41 C           4.9691   -2.0311    0.0000 C.ar    1  UNL1       -0.0023
     42 C           4.7430   -3.7484    0.0000 C.ar    1  UNL1       -0.0023
     43 C           3.7516   -3.6178    0.0000 C.ar    1  UNL1        0.1628
     44 C           3.9776   -1.9006    0.0000 C.ar    1  UNL1        0.1628
     45 C           3.3689   -2.6940    0.0000 C.ar    1  UNL1        0.2006
     46 H           7.9335   -1.5888    0.0000 H       1  UNL1        0.0800
     47 H           7.5660   -2.9146    0.0000 H       1  UNL1        0.0803
     48 H          10.1170   -2.0486    0.0000 H       1  UNL1        0.0666
     49 H           8.7035   -2.8547    0.0000 H       1  UNL1        0.0709
     50 H          10.6636   -1.6195    0.0000 H       1  UNL1        0.0725
     51 H          10.6636   -0.7427    0.0000 H       1  UNL1        0.0725
     52 H          10.3758   -3.0146    0.0000 H       1  UNL1        0.2101
     53 H           7.6227   -4.5753    0.0000 H       1  UNL1        0.1055
     54 H           9.5548   -4.0499    0.0000 H       1  UNL1        0.2105
     55 H           6.7994   -0.5519    0.0000 H       1  UNL1        0.0664
     56 H          10.8615    1.7933    0.0000 H       1  UNL1        0.0664
     57 H           5.3465   -1.5393    0.0000 H       1  UNL1        0.0663
     58 H           4.9803   -4.3212    0.0000 H       1  UNL1        0.0663
     59 H           6.2705    3.4535    0.0000 H       1  UNL1        0.2923
     60 H           7.6572    4.2541    0.0000 H       1  UNL1        0.2923
     61 H           4.4839    1.8189    0.0000 H       1  UNL1        0.2924
     62 H           5.0244   -0.5415    0.0000 H       1  UNL1        0.2923
     63 H           9.9660    4.9840    0.0000 H       1  UNL1        0.2924
     64 H          11.7399    3.3357    0.0000 H       1  UNL1        0.2923
     65 H           3.3801   -4.9840    0.0000 H       1  UNL1        0.2923
     66 H           2.9803   -0.8958    0.0000 H       1  UNL1        0.2923
     67 H           2.0000   -3.0553    0.0000 H       1  UNL1        0.2924
@<TRIPOS>BOND
     1     1    19    1
     2     1    24    1
     3     2    20    1
     4     2    31    1
     5     3    21    1
     6     3    52    1
     7     4    23    1
     8     4    30    1
     9     5    22    1
    10     5    54    1
    11     6    24    2
    12     7    28    2
    13     8    32    1
    14     8    59    1
    15     9    34    1
    16     9    60    1
    17    10    30    2
    18    11    31    2
    19    12    36    1
    20    12    61    1
    21    13    37    1
    22    13    62    1
    23    14    39    1
    24    14    63    1
    25    15    40    1
    26    15    64    1
    27    16    43    1
    28    16    65    1
    29    17    44    1
    30    17    66    1
    31    18    45    1
    32    18    67    1
    33    19    20    1
    34    19    21    1
    35    19    46    1
    36    20    22    1
    37    20    47    1
    38    21    23    1
    39    21    48    1
    40    22    28    1
    41    22    49    1
    42    23    50    1
    43    23    51    1
    44    24    25    1
    45    25    26   ar
    46    25    33   ar
    47    26    27    1
    48    26    32   ar
    49    27    29   ar
    50    27    34   ar
    51    28    53    1
    52    29    30    1
    53    29    35   ar
    54    31    38    1
    55    32    36   ar
    56    33    37   ar
    57    33    55    1
    58    34    39   ar
    59    35    40   ar
    60    35    56    1
    61    36    37   ar
    62    38    41   ar
    63    38    42   ar
    64    39    40   ar
    65    41    44   ar
    66    41    57    1
    67    42    43   ar
    68    42    58    1
    69    43    45   ar
    70    44    45   ar
