@<TRIPOS>MOLECULE
IMPHY003686
 73 78 0 0 0
SMALL
GASTEIGER

@<TRIPOS>ATOM
      1 O           2.0000    3.4448    0.0000 O.3     1  UNL1       -0.3649
      2 O           2.8665    4.9448    0.0000 O.3     1  UNL1       -0.3846
      3 O           6.3846    0.8997    0.0000 O.3     1  UNL1       -0.3912
      4 O           6.3688    3.9417    0.0000 O.2     1  UNL1       -0.2920
      5 O           5.3950   -2.5820    0.0000 O.3     1  UNL1       -0.4574
      6 O           5.7391   -4.2795    0.0000 O.2     1  UNL1       -0.2452
      7 O           4.4411   -5.4263    0.0000 O.3     1  UNL1       -0.3902
      8 C           3.7326    2.4448    0.0000 C.3     1  UNL1       -0.0049
      9 C           3.7165    1.4033    0.0000 C.3     1  UNL1       -0.0275
     10 C           4.5986    2.9448    0.0000 C.3     1  UNL1       -0.0180
     11 C           4.6145    0.8756    0.0000 C.3     1  UNL1        0.0002
     12 C           2.8665    2.9448    0.0000 C.3     1  UNL1        0.0914
     13 C           2.8665    3.9448    0.0000 C.3     1  UNL1        0.1153
     14 C           4.5986    3.9448    0.0000 C.3     1  UNL1        0.0648
     15 C           3.7326    4.4448    0.0000 C.3     1  UNL1        0.1104
     16 C           4.3888   -0.1350    0.0000 C.3     1  UNL1       -0.0271
     17 C           5.5166    1.3964    0.0000 C.3     1  UNL1        0.0614
     18 C           5.5086    2.4380    0.0000 C.3     1  UNL1       -0.0222
     19 C           2.9435    0.7144    0.0000 C.3     1  UNL1       -0.0490
     20 C           3.3582   -0.2344    0.0000 C.3     1  UNL1       -0.0490
     21 C           5.4767    0.3689    0.0000 C.3     1  UNL1       -0.0567
     22 C           3.7165    5.4863    0.0000 C.3     1  UNL1       -0.0019
     23 C           5.0509   -0.8844    0.0000 C.3     1  UNL1       -0.0029
     24 C           5.4646    3.4448    0.0000 C.3     1  UNL1       -0.0495
     25 C           5.5086    4.4517    0.0000 C.2     1  UNL1        0.1647
     26 C           4.6145    6.0141    0.0000 C.2     1  UNL1       -0.0779
     27 C           4.7329   -1.8325    0.0000 C.3     1  UNL1        0.1099
     28 C           5.5166    5.4933    0.0000 C.2     1  UNL1       -0.0224
     29 C           6.0310   -0.6858    0.0000 C.3     1  UNL1       -0.0588
     30 C           3.7529   -2.0312    0.0000 C.3     1  UNL1        0.0064
     31 C           3.4349   -2.9793    0.0000 C.2     1  UNL1       -0.0570
     32 C           5.0770   -3.5301    0.0000 C.2     1  UNL1        0.3376
     33 C           4.0970   -3.7287    0.0000 C.2     1  UNL1        0.0608
     34 C           2.4548   -3.1780    0.0000 C.3     1  UNL1       -0.0428
     35 C           3.7790   -4.6768    0.0000 C.3     1  UNL1        0.0759
     36 H           2.9932    2.0255    0.0000 H       1  UNL1        0.0332
     37 H           2.9436    1.7570    0.0000 H       1  UNL1        0.0310
     38 H           5.3314    3.3755    0.0000 H       1  UNL1        0.0315
     39 H           2.5566    2.4078    0.0000 H       1  UNL1        0.0626
     40 H           2.5566    4.4818    0.0000 H       1  UNL1        0.0651
     41 H           4.0771   -0.9258    0.0000 H       1  UNL1        0.0311
     42 H           6.0518    1.7095    0.0000 H       1  UNL1        0.0599
     43 H           6.1202    2.3366    0.0000 H       1  UNL1        0.0293
     44 H           5.7131    3.0232    0.0000 H       1  UNL1        0.0293
     45 H           2.5819    1.2180    0.0000 H       1  UNL1        0.0268
     46 H           2.4046    0.4078    0.0000 H       1  UNL1        0.0268
     47 H           2.7671   -0.4216    0.0000 H       1  UNL1        0.0268
     48 H           3.4822   -0.8419    0.0000 H       1  UNL1        0.0268
     49 H           5.1626   -0.1656    0.0000 H       1  UNL1        0.0236
     50 H           6.0112    0.0548    0.0000 H       1  UNL1        0.0236
     51 H           5.7908    0.9034    0.0000 H       1  UNL1        0.0236
     52 H           3.4985    6.0667    0.0000 H       1  UNL1        0.0336
     53 H           3.1074    5.3708    0.0000 H       1  UNL1        0.0336
     54 H           5.2481   -0.2966    0.0000 H       1  UNL1        0.0337
     55 H           5.1546    2.9079    0.0000 H       1  UNL1        0.0240
     56 H           6.0016    3.1348    0.0000 H       1  UNL1        0.0240
     57 H           5.7746    3.9818    0.0000 H       1  UNL1        0.0240
     58 H           2.8665    5.5648    0.0000 H       1  UNL1        0.2103
     59 H           6.9203    1.2118    0.0000 H       1  UNL1        0.2098
     60 H           4.6122    6.6341    0.0000 H       1  UNL1        0.0574
     61 H           5.5660   -1.6637    0.0000 H       1  UNL1        0.0740
     62 H           6.0548    5.8012    0.0000 H       1  UNL1        0.0649
     63 H           6.1542   -1.2934    0.0000 H       1  UNL1        0.0234
     64 H           6.6386   -0.5626    0.0000 H       1  UNL1        0.0234
     65 H           5.9078   -0.0781    0.0000 H       1  UNL1        0.0234
     66 H           3.7371   -1.4114    0.0000 H       1  UNL1        0.0346
     67 H           3.1397   -1.9391    0.0000 H       1  UNL1        0.0346
     68 H           2.3316   -2.5703    0.0000 H       1  UNL1        0.0275
     69 H           1.8472   -3.3012    0.0000 H       1  UNL1        0.0275
     70 H           2.5780   -3.7856    0.0000 H       1  UNL1        0.0275
     71 H           3.2343   -4.3806    0.0000 H       1  UNL1        0.0609
     72 H           3.3927   -5.1618    0.0000 H       1  UNL1        0.0609
     73 H           4.2439   -6.0141    0.0000 H       1  UNL1        0.2099
@<TRIPOS>BOND
     1    12     1    1
     2    13     1    1
     3    15     2    1
     4     2    58    1
     5    17     3    1
     6     3    59    1
     7     4    25    2
     8     5    27    1
     9     5    32    1
    10     6    32    2
    11     7    35    1
    12     7    73    1
    13     8     9    1
    14     8    10    1
    15     8    12    1
    16     8    36    1
    17     9    11    1
    18     9    19    1
    19     9    37    1
    20    10    14    1
    21    10    18    1
    22    10    38    1
    23    11    16    1
    24    11    17    1
    25    11    21    1
    26    12    13    1
    27    12    39    1
    28    13    15    1
    29    13    40    1
    30    14    15    1
    31    14    24    1
    32    14    25    1
    33    15    22    1
    34    16    20    1
    35    16    23    1
    36    16    41    1
    37    17    18    1
    38    17    42    1
    39    18    43    1
    40    18    44    1
    41    19    20    1
    42    19    45    1
    43    19    46    1
    44    20    47    1
    45    20    48    1
    46    21    49    1
    47    21    50    1
    48    21    51    1
    49    22    26    1
    50    22    52    1
    51    22    53    1
    52    23    27    1
    53    23    29    1
    54    23    54    1
    55    24    55    1
    56    24    56    1
    57    24    57    1
    58    25    28    1
    59    26    28    2
    60    26    60    1
    61    27    30    1
    62    27    61    1
    63    28    62    1
    64    29    63    1
    65    29    64    1
    66    29    65    1
    67    30    31    1
    68    30    66    1
    69    30    67    1
    70    31    33    2
    71    31    34    1
    72    32    33    1
    73    33    35    1
    74    34    68    1
    75    34    69    1
    76    34    70    1
    77    35    71    1
    78    35    72    1
