@<TRIPOS>MOLECULE
IMPHY007019
 24 23 0 0 0
SMALL
GASTEIGER

@<TRIPOS>ATOM
      1 O           2.5369    0.7500    0.0000 O.3     1  UNL1       -0.4775
      2 O           3.4030   -0.7500    0.0000 O.2     1  UNL1       -0.2458
      3 C           7.7331    0.7500    0.0000 C.3     1  UNL1       -0.0530
      4 C           6.8671    0.2500    0.0000 C.3     1  UNL1       -0.0496
      5 C           8.5991    0.2500    0.0000 C.3     1  UNL1       -0.0559
      6 C           6.0010    0.7500    0.0000 C.3     1  UNL1       -0.0343
      7 C           9.4651    0.7500    0.0000 C.3     1  UNL1       -0.0653
      8 C           5.1350    0.2500    0.0000 C.2     1  UNL1       -0.0773
      9 C           4.2690    0.7500    0.0000 C.2     1  UNL1        0.0184
     10 C           3.4030    0.2500    0.0000 C.2     1  UNL1        0.3292
     11 H           8.1316    1.2250    0.0000 H       1  UNL1        0.0265
     12 H           7.3346    1.2250    0.0000 H       1  UNL1        0.0265
     13 H           6.4685   -0.2249    0.0000 H       1  UNL1        0.0268
     14 H           7.2656   -0.2249    0.0000 H       1  UNL1        0.0268
     15 H           8.2006   -0.2249    0.0000 H       1  UNL1        0.0263
     16 H           8.9976   -0.2249    0.0000 H       1  UNL1        0.0263
     17 H           6.3996    1.2250    0.0000 H       1  UNL1        0.0307
     18 H           5.6025    1.2250    0.0000 H       1  UNL1        0.0307
     19 H           9.7751    0.2131    0.0000 H       1  UNL1        0.0230
     20 H          10.0021    1.0600    0.0000 H       1  UNL1        0.0230
     21 H           9.1551    1.2869    0.0000 H       1  UNL1        0.0230
     22 H           5.1350   -0.3700    0.0000 H       1  UNL1        0.0574
     23 H           4.2690    1.3700    0.0000 H       1  UNL1        0.0686
     24 H           2.0000    0.4400    0.0000 H       1  UNL1        0.2954
@<TRIPOS>BOND
     1     1    10    1
     2     1    24    1
     3     2    10    2
     4     3     4    1
     5     3     5    1
     6     3    11    1
     7     3    12    1
     8     4     6    1
     9     4    13    1
    10     4    14    1
    11     5     7    1
    12     5    15    1
    13     5    16    1
    14     6     8    1
    15     6    17    1
    16     6    18    1
    17     7    19    1
    18     7    20    1
    19     7    21    1
    20     8     9    2
    21     8    22    1
    22     9    10    1
    23     9    23    1
