@<TRIPOS>MOLECULE
IMPHY004840
 32 34 0 0 0
SMALL
GASTEIGER

@<TRIPOS>ATOM
      1 O           6.0290   -2.0519    0.0000 O.2     1  UNL1       -0.4220
      2 O           2.5369   -2.0172    0.0000 O.3     1  UNL1       -0.4913
      3 O           2.5369   -0.0172    0.0000 O.3     1  UNL1       -0.5033
      4 O           7.7991   -2.0414    0.0000 O.2     1  UNL1       -0.2452
      5 C           5.1350   -0.5172    0.0000 C.ar    1  UNL1        0.0290
      6 C           6.0290    0.0174    0.0000 C.ar    1  UNL1       -0.0003
      7 C           5.1350   -1.5172    0.0000 C.ar    1  UNL1        0.1433
      8 C           6.0174    1.0174    0.0000 C.ar    1  UNL1       -0.0170
      9 C           4.2690   -0.0172    0.0000 C.ar    1  UNL1       -0.0053
     10 C           4.2690   -2.0172    0.0000 C.ar    1  UNL1        0.0267
     11 C           6.9350   -0.4964    0.0000 C.ar    1  UNL1        0.0313
     12 C           3.4030   -0.5172    0.0000 C.ar    1  UNL1        0.1593
     13 C           3.4030   -1.5172    0.0000 C.ar    1  UNL1        0.1648
     14 C           6.9350   -1.5380    0.0000 C.ar    1  UNL1        0.3378
     15 C           6.8776    1.5273    0.0000 C.ar    1  UNL1       -0.0540
     16 C           5.1456    1.5073    0.0000 C.ar    1  UNL1       -0.0540
     17 C           6.8660    2.5273    0.0000 C.ar    1  UNL1       -0.0612
     18 C           5.1341    2.5072    0.0000 C.ar    1  UNL1       -0.0612
     19 C           5.9943    3.0172    0.0000 C.ar    1  UNL1       -0.0617
     20 C           2.5369   -3.0172    0.0000 C.3     1  UNL1        0.0790
     21 H           4.2690    0.6028    0.0000 H       1  UNL1        0.0662
     22 H           4.2690   -2.6372    0.0000 H       1  UNL1        0.0692
     23 H           7.4708   -0.1843    0.0000 H       1  UNL1        0.0695
     24 H           7.4181    1.2236    0.0000 H       1  UNL1        0.0624
     25 H           4.6123    1.1911    0.0000 H       1  UNL1        0.0624
     26 H           7.3993    2.8435    0.0000 H       1  UNL1        0.0618
     27 H           4.5936    2.8110    0.0000 H       1  UNL1        0.0618
     28 H           5.9871    3.6372    0.0000 H       1  UNL1        0.0618
     29 H           2.0000   -0.3272    0.0000 H       1  UNL1        0.2923
     30 H           1.9169   -3.0172    0.0000 H       1  UNL1        0.0660
     31 H           2.5369   -3.6372    0.0000 H       1  UNL1        0.0660
     32 H           3.1569   -3.0172    0.0000 H       1  UNL1        0.0660
@<TRIPOS>BOND
     1     1     7   ar
     2     1    14   ar
     3     2    13    1
     4     2    20    1
     5     3    12    1
     6     3    29    1
     7     4    14    2
     8     5     6   ar
     9     5     7   ar
    10     5     9   ar
    11     6     8    1
    12     6    11   ar
    13     7    10   ar
    14     8    15   ar
    15     8    16   ar
    16     9    12   ar
    17     9    21    1
    18    10    13   ar
    19    10    22    1
    20    11    14   ar
    21    11    23    1
    22    12    13   ar
    23    15    17   ar
    24    15    24    1
    25    16    18   ar
    26    16    25    1
    27    17    19   ar
    28    17    26    1
    29    18    19   ar
    30    18    27    1
    31    19    28    1
    32    20    30    1
    33    20    31    1
    34    20    32    1
