@<TRIPOS>MOLECULE
IMPHY014583
 22 22 0 0 0
SMALL
GASTEIGER

@<TRIPOS>ATOM
      1 O           3.7601   -1.1338    0.0000 O.3     1  UNL1       -0.4572
      2 O           2.0000   -0.8550    0.0000 O.2     1  UNL1       -0.2508
      3 C           4.5691   -0.5460    0.0000 C.3     1  UNL1        0.1217
      4 C           4.2601    0.4051    0.0000 C.3     1  UNL1       -0.0019
      5 C           3.2601    0.4051    0.0000 C.3     1  UNL1        0.0486
      6 C           5.5202   -0.8550    0.0000 C.2     1  UNL1       -0.0479
      7 C           2.9511   -0.5460    0.0000 C.2     1  UNL1        0.3078
      8 C           6.2633   -0.1858    0.0000 C.2     1  UNL1       -0.0848
      9 C           6.0554    0.7923    0.0000 C.3     1  UNL1       -0.0375
     10 C           6.7985    1.4614    0.0000 C.3     1  UNL1       -0.0618
     11 H           4.6661   -1.1583    0.0000 H       1  UNL1        0.0779
     12 H           4.8665    0.5340    0.0000 H       1  UNL1        0.0309
     13 H           4.1953    1.0217    0.0000 H       1  UNL1        0.0309
     14 H           3.3249    1.0217    0.0000 H       1  UNL1        0.0379
     15 H           2.6536    0.5340    0.0000 H       1  UNL1        0.0379
     16 H           5.6490   -1.4614    0.0000 H       1  UNL1        0.0605
     17 H           6.8530   -0.3774    0.0000 H       1  UNL1        0.0570
     18 H           5.7268    1.3181    0.0000 H       1  UNL1        0.0305
     19 H           5.4805    0.5600    0.0000 H       1  UNL1        0.0305
     20 H           7.2134    1.0007    0.0000 H       1  UNL1        0.0233
     21 H           7.2593    1.8763    0.0000 H       1  UNL1        0.0233
     22 H           6.3837    1.9222    0.0000 H       1  UNL1        0.0233
@<TRIPOS>BOND
     1     1     3    1
     2     1     7    1
     3     2     7    2
     4     3     4    1
     5     3     6    1
     6     3    11    1
     7     4     5    1
     8     4    12    1
     9     4    13    1
    10     5     7    1
    11     5    14    1
    12     5    15    1
    13     6     8    2
    14     6    16    1
    15     8     9    1
    16     8    17    1
    17     9    10    1
    18     9    18    1
    19     9    19    1
    20    10    20    1
    21    10    21    1
    22    10    22    1
