@<TRIPOS>MOLECULE
IMPHY001710
 37 40 0 0 0
SMALL
GASTEIGER

@<TRIPOS>ATOM
      1 O           2.5836    0.3765    0.0000 O.3     1  UNL1       -0.4520
      2 O           2.5836    1.9860    0.0000 O.3     1  UNL1       -0.4526
      3 O           6.1541   -2.9696    0.0000 O.3     1  UNL1       -0.4944
      4 O           2.5394   -2.9557    0.0000 O.3     1  UNL1       -0.5066
      5 O           4.9611    3.3870    0.0000 O.3     1  UNL1       -0.4771
      6 O           6.5887    2.7946    0.0000 O.2     1  UNL1       -0.2451
      7 O           7.9038    0.1944    0.0000 O.co2   1  UNL1       -0.5760
      8 O           7.6660    1.4578    0.0000 O.2     1  UNL1        0.0415
      9 N           7.0321    0.6844    0.0000 N.pl3   1  UNL1        0.0803
     10 C           4.3958    0.1813    0.0000 C.ar    1  UNL1        0.0428
     11 C           5.2619    0.6813    0.0000 C.ar    1  UNL1        0.0775
     12 C           4.3798   -0.8602    0.0000 C.ar    1  UNL1        0.0008
     13 C           3.5298    0.6813    0.0000 C.ar    1  UNL1        0.1747
     14 C           5.2778   -1.3880    0.0000 C.ar    1  UNL1        0.0311
     15 C           6.1719    0.1744    0.0000 C.ar    1  UNL1        0.2824
     16 C           5.2619    1.6813    0.0000 C.ar    1  UNL1        0.0767
     17 C           3.5298    1.6813    0.0000 C.ar    1  UNL1        0.1677
     18 C           6.1799   -0.8672    0.0000 C.ar    1  UNL1        0.0275
     19 C           4.3958    2.1813    0.0000 C.ar    1  UNL1       -0.0013
     20 C           3.4279   -1.3809    0.0000 C.ar    1  UNL1       -0.0115
     21 C           5.2862   -2.4730    0.0000 C.ar    1  UNL1        0.1315
     22 C           2.0000    1.1813    0.0000 C.3     1  UNL1        0.2333
     23 C           3.4111   -2.4657    0.0000 C.ar    1  UNL1        0.1209
     24 C           4.3466   -3.0155    0.0000 C.ar    1  UNL1        0.0222
     25 C           5.6039    2.6210    0.0000 C.2     1  UNL1        0.3377
     26 C           6.1580   -3.9696    0.0000 C.3     1  UNL1        0.0788
     27 H           6.7180   -1.1751    0.0000 H       1  UNL1        0.0693
     28 H           4.3958    2.8013    0.0000 H       1  UNL1        0.0664
     29 H           2.8970   -1.0606    0.0000 H       1  UNL1        0.0660
     30 H           1.5391    1.5960    0.0000 H       1  UNL1        0.1166
     31 H           1.5391    0.7665    0.0000 H       1  UNL1        0.1166
     32 H           4.3442   -3.6354    0.0000 H       1  UNL1        0.0691
     33 H           2.5322   -3.5756    0.0000 H       1  UNL1        0.2921
     34 H           5.5380   -3.9720    0.0000 H       1  UNL1        0.0660
     35 H           6.1604   -4.5896    0.0000 H       1  UNL1        0.0660
     36 H           6.7780   -3.9672    0.0000 H       1  UNL1        0.0660
     37 H           5.1732    3.9696    0.0000 H       1  UNL1        0.2954
@<TRIPOS>UNITY_ATOM_ATTR
7 1
charge -1
9 1
charge 1
@<TRIPOS>BOND
     1     1    13    1
     2     1    22    1
     3     2    17    1
     4     2    22    1
     5     3    21    1
     6     3    26    1
     7     4    23    1
     8     4    33    1
     9     5    25    1
    10     5    37    1
    11     6    25    2
    12     7     9    1
    13     8     9    2
    14     9    15    1
    15    10    11   ar
    16    10    12   ar
    17    10    13   ar
    18    11    15   ar
    19    11    16   ar
    20    12    14   ar
    21    12    20   ar
    22    13    17   ar
    23    14    18   ar
    24    14    21   ar
    25    15    18   ar
    26    16    19   ar
    27    16    25    1
    28    17    19   ar
    29    18    27    1
    30    19    28    1
    31    20    23   ar
    32    20    29    1
    33    21    24   ar
    34    22    30    1
    35    22    31    1
    36    23    24   ar
    37    24    32    1
    38    26    34    1
    39    26    35    1
    40    26    36    1
