@<TRIPOS>MOLECULE
IMPHY017052
 28 29 0 0 0
SMALL
GASTEIGER

@<TRIPOS>ATOM
      1 O           2.7976    2.1082    0.0000 O.2     1  UNL1       -0.3004
      2 C           4.2839    0.1519    0.0000 C.3     1  UNL1       -0.0072
      3 C           4.2839   -0.8481    0.0000 C.3     1  UNL1       -0.0128
      4 C           5.1504   -0.3481    0.0000 C.3     1  UNL1       -0.0386
      5 C           3.3328    0.4609    0.0000 C.3     1  UNL1        0.0392
      6 C           4.7839    1.0179    0.0000 C.3     1  UNL1       -0.0396
      7 C           3.3328   -1.1571    0.0000 C.2     1  UNL1       -0.0722
      8 C           2.7450   -0.3481    0.0000 C.2     1  UNL1       -0.0743
      9 C           5.7839    1.0179    0.0000 C.3     1  UNL1       -0.0621
     10 C           4.2839    1.8839    0.0000 C.3     1  UNL1       -0.0621
     11 C           2.5896    1.1300    0.0000 C.2     1  UNL1        0.1276
     12 C           3.0238   -2.1082    0.0000 C.3     1  UNL1       -0.0435
     13 H           4.5360   -1.4145    0.0000 H       1  UNL1        0.0351
     14 H           5.5489   -0.8231    0.0000 H       1  UNL1        0.0277
     15 H           5.5489    0.1269    0.0000 H       1  UNL1        0.0277
     16 H           3.6428    0.9978    0.0000 H       1  UNL1        0.0423
     17 H           4.1639    1.0179    0.0000 H       1  UNL1        0.0301
     18 H           2.1250   -0.3481    0.0000 H       1  UNL1        0.0579
     19 H           5.7839    0.3979    0.0000 H       1  UNL1        0.0233
     20 H           6.4039    1.0179    0.0000 H       1  UNL1        0.0233
     21 H           5.7839    1.6379    0.0000 H       1  UNL1        0.0233
     22 H           4.8208    2.1939    0.0000 H       1  UNL1        0.0233
     23 H           3.9739    2.4209    0.0000 H       1  UNL1        0.0233
     24 H           3.7469    1.5739    0.0000 H       1  UNL1        0.0233
     25 H           2.0000    0.9384    0.0000 H       1  UNL1        0.1033
     26 H           2.4341   -1.9166    0.0000 H       1  UNL1        0.0274
     27 H           2.8322   -2.6978    0.0000 H       1  UNL1        0.0274
     28 H           3.6134   -2.2998    0.0000 H       1  UNL1        0.0274
@<TRIPOS>BOND
     1     1    11    2
     2     2     3    1
     3     2     4    1
     4     2     5    1
     5     2     6    1
     6     3     4    1
     7     3     7    1
     8     3    13    1
     9     4    14    1
    10     4    15    1
    11     5     8    1
    12     5    11    1
    13     5    16    1
    14     6     9    1
    15     6    10    1
    16     6    17    1
    17     7     8    2
    18     7    12    1
    19     8    18    1
    20     9    19    1
    21     9    20    1
    22     9    21    1
    23    10    22    1
    24    10    23    1
    25    10    24    1
    26    11    25    1
    27    12    26    1
    28    12    27    1
    29    12    28    1
