@<TRIPOS>MOLECULE
IMPHY015342
 46 49 0 0 0
SMALL
GASTEIGER

@<TRIPOS>ATOM
      1 O           2.9176   -2.3164    0.0000 O.2     1  UNL1       -0.2965
      2 O           9.1931    2.2705    0.0000 O.3     1  UNL1       -0.4951
      3 C           4.6660    0.7182    0.0000 C.3     1  UNL1       -0.0268
      4 C           3.8000    0.2182    0.0000 C.3     1  UNL1       -0.0074
      5 C           3.8000   -0.7818    0.0000 C.3     1  UNL1        0.0330
      6 C           5.5321    0.2182    0.0000 C.3     1  UNL1       -0.0122
      7 C           4.6660   -1.2818    0.0000 C.3     1  UNL1       -0.0398
      8 C           5.5321   -0.7818    0.0000 C.3     1  UNL1       -0.0450
      9 C           4.6500    1.7597    0.0000 C.3     1  UNL1       -0.0451
     10 C           6.4421    0.7251    0.0000 C.ar    1  UNL1       -0.0406
     11 C           2.9061   -1.3164    0.0000 C.2     1  UNL1        0.1434
     12 C           5.5480    2.2875    0.0000 C.3     1  UNL1       -0.0270
     13 C           2.9061    0.7529    0.0000 C.2     1  UNL1       -0.0832
     14 C           3.8000   -1.7818    0.0000 C.3     1  UNL1       -0.0523
     15 C           6.4501    1.7667    0.0000 C.ar    1  UNL1       -0.0405
     16 C           2.0000   -0.8026    0.0000 C.3     1  UNL1        0.0246
     17 C           2.0000    0.2390    0.0000 C.2     1  UNL1       -0.0805
     18 C           7.3689    0.1610    0.0000 C.ar    1  UNL1       -0.0546
     19 C           7.3855    2.3164    0.0000 C.ar    1  UNL1       -0.0165
     20 C           8.3168    0.6889    0.0000 C.ar    1  UNL1       -0.0197
     21 C           8.3252    1.7739    0.0000 C.ar    1  UNL1        0.1204
     22 C          10.0572    1.7672    0.0000 C.3     1  UNL1        0.0788
     23 H           5.3989    1.1489    0.0000 H       1  UNL1        0.0313
     24 H           3.8066    1.0682    0.0000 H       1  UNL1        0.0355
     25 H           6.2649   -0.2124    0.0000 H       1  UNL1        0.0352
     26 H           4.2675   -1.7567    0.0000 H       1  UNL1        0.0275
     27 H           5.0646   -1.7567    0.0000 H       1  UNL1        0.0275
     28 H           5.7441   -1.3644    0.0000 H       1  UNL1        0.0271
     29 H           6.1426   -0.6741    0.0000 H       1  UNL1        0.0271
     30 H           4.4319    2.3401    0.0000 H       1  UNL1        0.0271
     31 H           4.0408    1.6442    0.0000 H       1  UNL1        0.0271
     32 H           5.9453    2.7634    0.0000 H       1  UNL1        0.0313
     33 H           5.1470    2.7604    0.0000 H       1  UNL1        0.0313
     34 H           2.9132    1.3728    0.0000 H       1  UNL1        0.0572
     35 H           3.1800   -1.7818    0.0000 H       1  UNL1        0.0239
     36 H           3.8000   -2.4018    0.0000 H       1  UNL1        0.0239
     37 H           4.4200   -1.7818    0.0000 H       1  UNL1        0.0239
     38 H           1.3891   -0.6965    0.0000 H       1  UNL1        0.0384
     39 H           1.7909   -1.3863    0.0000 H       1  UNL1        0.0384
     40 H           1.4643    0.5511    0.0000 H       1  UNL1        0.0573
     41 H           7.3570   -0.4589    0.0000 H       1  UNL1        0.0622
     42 H           7.3831    2.9364    0.0000 H       1  UNL1        0.0657
     43 H           8.8501    0.3727    0.0000 H       1  UNL1        0.0654
     44 H           9.7451    1.2315    0.0000 H       1  UNL1        0.0660
     45 H          10.5929    1.4551    0.0000 H       1  UNL1        0.0660
     46 H          10.3693    2.3030    0.0000 H       1  UNL1        0.0660
@<TRIPOS>BOND
     1     1    11    2
     2     2    21    1
     3     2    22    1
     4     3     4    1
     5     3     6    1
     6     3     9    1
     7     3    23    1
     8     4     5    1
     9     4    13    1
    10     4    24    1
    11     5     7    1
    12     5    11    1
    13     5    14    1
    14     6     8    1
    15     6    10    1
    16     6    25    1
    17     7     8    1
    18     7    26    1
    19     7    27    1
    20     8    28    1
    21     8    29    1
    22     9    12    1
    23     9    30    1
    24     9    31    1
    25    10    15   ar
    26    10    18   ar
    27    11    16    1
    28    12    15    1
    29    12    32    1
    30    12    33    1
    31    13    17    2
    32    13    34    1
    33    14    35    1
    34    14    36    1
    35    14    37    1
    36    15    19   ar
    37    16    17    1
    38    16    38    1
    39    16    39    1
    40    17    40    1
    41    18    20   ar
    42    18    41    1
    43    19    21   ar
    44    19    42    1
    45    20    21   ar
    46    20    43    1
    47    22    44    1
    48    22    45    1
    49    22    46    1
