@<TRIPOS>MOLECULE
IMPHY000716
 26 27 0 0 0
SMALL
GASTEIGER

@<TRIPOS>ATOM
      1 O           5.4920   -1.1897    0.0000 O.2     1  UNL1       -0.4569
      2 O           2.0000   -1.1550    0.0000 O.3     1  UNL1       -0.4949
      3 O           3.7320    1.8450    0.0000 O.3     1  UNL1       -0.5058
      4 O           5.4804    1.8796    0.0000 O.2     1  UNL1       -0.2869
      5 O           8.1301   -0.6825    0.0000 O.3     1  UNL1       -0.3873
      6 C           4.5981    0.3450    0.0000 C.ar    1  UNL1        0.1054
      7 C           4.5981   -0.6550    0.0000 C.ar    1  UNL1        0.1459
      8 C           3.7320    0.8450    0.0000 C.ar    1  UNL1        0.1347
      9 C           5.4920    0.8797    0.0000 C.ar    1  UNL1        0.1963
     10 C           3.7320   -1.1550    0.0000 C.ar    1  UNL1        0.0233
     11 C           6.3981   -0.6758    0.0000 C.ar    1  UNL1        0.1345
     12 C           2.8660   -0.6550    0.0000 C.ar    1  UNL1        0.1271
     13 C           6.3981    0.3658    0.0000 C.ar    1  UNL1        0.0263
     14 C           2.8660    0.3450    0.0000 C.ar    1  UNL1        0.0225
     15 C           7.2622   -1.1792    0.0000 C.3     1  UNL1        0.1020
     16 C           2.0000   -2.1550    0.0000 C.3     1  UNL1        0.0788
     17 H           3.7320   -1.7750    0.0000 H       1  UNL1        0.0691
     18 H           6.9338    0.6779    0.0000 H       1  UNL1        0.0690
     19 H           2.3291    0.6550    0.0000 H       1  UNL1        0.0691
     20 H           6.8618   -1.6526    0.0000 H       1  UNL1        0.0638
     21 H           7.6589   -1.6556    0.0000 H       1  UNL1        0.0638
     22 H           3.1951    2.1550    0.0000 H       1  UNL1        0.2922
     23 H           1.3800   -2.1550    0.0000 H       1  UNL1        0.0660
     24 H           2.0000   -2.7750    0.0000 H       1  UNL1        0.0660
     25 H           2.6200   -2.1550    0.0000 H       1  UNL1        0.0660
     26 H           8.6659   -0.9946    0.0000 H       1  UNL1        0.2100
@<TRIPOS>BOND
     1     1     7   ar
     2     1    11   ar
     3     2    12    1
     4     2    16    1
     5     3     8    1
     6     3    22    1
     7     4     9    2
     8     5    15    1
     9     5    26    1
    10     6     7   ar
    11     6     8   ar
    12     6     9   ar
    13     7    10   ar
    14     8    14   ar
    15     9    13   ar
    16    10    12   ar
    17    10    17    1
    18    11    13   ar
    19    11    15    1
    20    12    14   ar
    21    13    18    1
    22    14    19    1
    23    15    20    1
    24    15    21    1
    25    16    23    1
    26    16    24    1
    27    16    25    1
