@<TRIPOS>MOLECULE
IMPHY012810
 92 91 0 0 0
SMALL
GASTEIGER

@<TRIPOS>ATOM
      1 O           2.5369    0.2500    0.0000 O.3     1  UNL1       -0.4806
      2 O          29.3837   -0.2500    0.0000 O.3     1  UNL1       -0.4806
      3 O           3.4030   -1.2500    0.0000 O.2     1  UNL1       -0.2510
      4 O          28.5177    1.2500    0.0000 O.2     1  UNL1       -0.2510
      5 C          15.5273   -0.2500    0.0000 C.3     1  UNL1       -0.0531
      6 C          16.3933    0.2500    0.0000 C.3     1  UNL1       -0.0531
      7 C          14.6613    0.2500    0.0000 C.3     1  UNL1       -0.0531
      8 C          17.2594   -0.2500    0.0000 C.3     1  UNL1       -0.0531
      9 C          13.7953   -0.2500    0.0000 C.3     1  UNL1       -0.0531
     10 C          18.1254    0.2500    0.0000 C.3     1  UNL1       -0.0531
     11 C          12.9292    0.2500    0.0000 C.3     1  UNL1       -0.0531
     12 C          18.9914   -0.2500    0.0000 C.3     1  UNL1       -0.0531
     13 C          12.0632   -0.2500    0.0000 C.3     1  UNL1       -0.0531
     14 C          19.8574    0.2500    0.0000 C.3     1  UNL1       -0.0531
     15 C          11.1972    0.2500    0.0000 C.3     1  UNL1       -0.0531
     16 C          20.7235   -0.2500    0.0000 C.3     1  UNL1       -0.0531
     17 C          10.3312   -0.2500    0.0000 C.3     1  UNL1       -0.0531
     18 C          21.5895    0.2500    0.0000 C.3     1  UNL1       -0.0531
     19 C           9.4651    0.2500    0.0000 C.3     1  UNL1       -0.0531
     20 C          22.4555   -0.2500    0.0000 C.3     1  UNL1       -0.0531
     21 C           8.5991   -0.2500    0.0000 C.3     1  UNL1       -0.0531
     22 C          23.3215    0.2500    0.0000 C.3     1  UNL1       -0.0531
     23 C           7.7331    0.2500    0.0000 C.3     1  UNL1       -0.0531
     24 C          24.1876   -0.2500    0.0000 C.3     1  UNL1       -0.0531
     25 C           6.8671   -0.2500    0.0000 C.3     1  UNL1       -0.0530
     26 C          25.0536    0.2500    0.0000 C.3     1  UNL1       -0.0530
     27 C           6.0010    0.2500    0.0000 C.3     1  UNL1       -0.0526
     28 C          25.9196   -0.2500    0.0000 C.3     1  UNL1       -0.0526
     29 C           5.1350   -0.2500    0.0000 C.3     1  UNL1       -0.0430
     30 C          26.7856    0.2500    0.0000 C.3     1  UNL1       -0.0430
     31 C           4.2690    0.2500    0.0000 C.3     1  UNL1        0.0448
     32 C          27.6517   -0.2500    0.0000 C.3     1  UNL1        0.0448
     33 C           3.4030   -0.2500    0.0000 C.2     1  UNL1        0.3047
     34 C          28.5177    0.2500    0.0000 C.2     1  UNL1        0.3047
     35 H          15.1288   -0.7249    0.0000 H       1  UNL1        0.0265
     36 H          15.9258   -0.7249    0.0000 H       1  UNL1        0.0265
     37 H          16.7919    0.7249    0.0000 H       1  UNL1        0.0265
     38 H          15.9948    0.7249    0.0000 H       1  UNL1        0.0265
     39 H          15.0598    0.7249    0.0000 H       1  UNL1        0.0265
     40 H          14.2628    0.7249    0.0000 H       1  UNL1        0.0265
     41 H          16.8608   -0.7249    0.0000 H       1  UNL1        0.0265
     42 H          17.6579   -0.7249    0.0000 H       1  UNL1        0.0265
     43 H          13.3967   -0.7249    0.0000 H       1  UNL1        0.0265
     44 H          14.1938   -0.7249    0.0000 H       1  UNL1        0.0265
     45 H          18.5239    0.7249    0.0000 H       1  UNL1        0.0265
     46 H          17.7269    0.7249    0.0000 H       1  UNL1        0.0265
     47 H          13.3278    0.7249    0.0000 H       1  UNL1        0.0265
     48 H          12.5307    0.7249    0.0000 H       1  UNL1        0.0265
     49 H          18.5929   -0.7249    0.0000 H       1  UNL1        0.0265
     50 H          19.3899   -0.7249    0.0000 H       1  UNL1        0.0265
     51 H          11.6647   -0.7249    0.0000 H       1  UNL1        0.0265
     52 H          12.4617   -0.7249    0.0000 H       1  UNL1        0.0265
     53 H          20.2560    0.7249    0.0000 H       1  UNL1        0.0265
     54 H          19.4589    0.7249    0.0000 H       1  UNL1        0.0265
     55 H          11.5957    0.7249    0.0000 H       1  UNL1        0.0265
     56 H          10.7987    0.7249    0.0000 H       1  UNL1        0.0265
     57 H          20.3249   -0.7249    0.0000 H       1  UNL1        0.0265
     58 H          21.1220   -0.7249    0.0000 H       1  UNL1        0.0265
     59 H           9.9326   -0.7249    0.0000 H       1  UNL1        0.0265
     60 H          10.7297   -0.7249    0.0000 H       1  UNL1        0.0265
     61 H          21.9880    0.7249    0.0000 H       1  UNL1        0.0265
     62 H          21.1910    0.7249    0.0000 H       1  UNL1        0.0265
     63 H           9.8637    0.7249    0.0000 H       1  UNL1        0.0265
     64 H           9.0666    0.7249    0.0000 H       1  UNL1        0.0265
     65 H          22.0570   -0.7249    0.0000 H       1  UNL1        0.0265
     66 H          22.8540   -0.7249    0.0000 H       1  UNL1        0.0265
     67 H           8.2006   -0.7249    0.0000 H       1  UNL1        0.0265
     68 H           8.9976   -0.7249    0.0000 H       1  UNL1        0.0265
     69 H          23.7201    0.7249    0.0000 H       1  UNL1        0.0265
     70 H          22.9230    0.7249    0.0000 H       1  UNL1        0.0265
     71 H           8.1316    0.7249    0.0000 H       1  UNL1        0.0265
     72 H           7.3346    0.7249    0.0000 H       1  UNL1        0.0265
     73 H          23.7890   -0.7249    0.0000 H       1  UNL1        0.0265
     74 H          24.5861   -0.7249    0.0000 H       1  UNL1        0.0265
     75 H           6.4685   -0.7249    0.0000 H       1  UNL1        0.0265
     76 H           7.2656   -0.7249    0.0000 H       1  UNL1        0.0265
     77 H          25.4521    0.7249    0.0000 H       1  UNL1        0.0265
     78 H          24.6551    0.7249    0.0000 H       1  UNL1        0.0265
     79 H           6.3996    0.7249    0.0000 H       1  UNL1        0.0265
     80 H           5.6025    0.7249    0.0000 H       1  UNL1        0.0265
     81 H          25.5211   -0.7249    0.0000 H       1  UNL1        0.0265
     82 H          26.3182   -0.7249    0.0000 H       1  UNL1        0.0265
     83 H           4.7365   -0.7249    0.0000 H       1  UNL1        0.0270
     84 H           5.5335   -0.7249    0.0000 H       1  UNL1        0.0270
     85 H          27.1842    0.7249    0.0000 H       1  UNL1        0.0270
     86 H          26.3871    0.7249    0.0000 H       1  UNL1        0.0270
     87 H           4.6675    0.7249    0.0000 H       1  UNL1        0.0377
     88 H           3.8705    0.7249    0.0000 H       1  UNL1        0.0377
     89 H          27.2531   -0.7249    0.0000 H       1  UNL1        0.0377
     90 H          28.0502   -0.7249    0.0000 H       1  UNL1        0.0377
     91 H           2.0000   -0.0600    0.0000 H       1  UNL1        0.2951
     92 H          29.9207    0.0600    0.0000 H       1  UNL1        0.2951
@<TRIPOS>BOND
     1     1    33    1
     2     1    91    1
     3     2    34    1
     4     2    92    1
     5     3    33    2
     6     4    34    2
     7     5     6    1
     8     5     7    1
     9     5    35    1
    10     5    36    1
    11     6     8    1
    12     6    37    1
    13     6    38    1
    14     7     9    1
    15     7    39    1
    16     7    40    1
    17     8    10    1
    18     8    41    1
    19     8    42    1
    20     9    11    1
    21     9    43    1
    22     9    44    1
    23    10    12    1
    24    10    45    1
    25    10    46    1
    26    11    13    1
    27    11    47    1
    28    11    48    1
    29    12    14    1
    30    12    49    1
    31    12    50    1
    32    13    15    1
    33    13    51    1
    34    13    52    1
    35    14    16    1
    36    14    53    1
    37    14    54    1
    38    15    17    1
    39    15    55    1
    40    15    56    1
    41    16    18    1
    42    16    57    1
    43    16    58    1
    44    17    19    1
    45    17    59    1
    46    17    60    1
    47    18    20    1
    48    18    61    1
    49    18    62    1
    50    19    21    1
    51    19    63    1
    52    19    64    1
    53    20    22    1
    54    20    65    1
    55    20    66    1
    56    21    23    1
    57    21    67    1
    58    21    68    1
    59    22    24    1
    60    22    69    1
    61    22    70    1
    62    23    25    1
    63    23    71    1
    64    23    72    1
    65    24    26    1
    66    24    73    1
    67    24    74    1
    68    25    27    1
    69    25    75    1
    70    25    76    1
    71    26    28    1
    72    26    77    1
    73    26    78    1
    74    27    29    1
    75    27    79    1
    76    27    80    1
    77    28    30    1
    78    28    81    1
    79    28    82    1
    80    29    31    1
    81    29    83    1
    82    29    84    1
    83    30    32    1
    84    30    85    1
    85    30    86    1
    86    31    33    1
    87    31    87    1
    88    31    88    1
    89    32    34    1
    90    32    89    1
    91    32    90    1
