@<TRIPOS>MOLECULE
IMPHY008884
 80 80 0 0 0
SMALL
GASTEIGER

@<TRIPOS>ATOM
      1 O           4.2690   -4.5950    0.0000 O.3     1  UNL1       -0.3405
      2 O           6.0010   -4.5950    0.0000 O.3     1  UNL1       -0.3384
      3 O           4.2690   -7.5950    0.0000 O.3     1  UNL1       -0.3864
      4 O           6.0010   -6.5950    0.0000 O.3     1  UNL1       -0.3841
      5 O           2.5369   -6.5950    0.0000 O.3     1  UNL1       -0.3865
      6 O           2.5369   -3.5950    0.0000 O.3     1  UNL1       -0.3924
      7 C           4.2690   -6.5950    0.0000 C.3     1  UNL1        0.1141
      8 C           5.1350   -6.0950    0.0000 C.3     1  UNL1        0.1341
      9 C           3.4030   -6.0950    0.0000 C.3     1  UNL1        0.1119
     10 C           5.1350   -5.0950    0.0000 C.3     1  UNL1        0.1889
     11 C           3.4030   -5.0950    0.0000 C.3     1  UNL1        0.1130
     12 C           6.0010   -3.5950    0.0000 C.3     1  UNL1        0.0879
     13 C           2.5369   -4.5950    0.0000 C.3     1  UNL1        0.0730
     14 C           6.0010   -2.5950    0.0000 C.3     1  UNL1       -0.0169
     15 C           5.0010   -3.5950    0.0000 C.3     1  UNL1       -0.0321
     16 C           6.8671   -2.0950    0.0000 C.3     1  UNL1       -0.0316
     17 C           7.0010   -3.5950    0.0000 C.2     1  UNL1       -0.0599
     18 C           6.8671   -1.0950    0.0000 C.2     1  UNL1       -0.0849
     19 C           8.5991    1.9050    0.0000 C.3     1  UNL1       -0.0528
     20 C           9.4651    2.4050    0.0000 C.3     1  UNL1       -0.0530
     21 C           8.5991    0.9050    0.0000 C.3     1  UNL1       -0.0494
     22 C           9.4651    3.4050    0.0000 C.3     1  UNL1       -0.0531
     23 C           7.7331    0.4050    0.0000 C.3     1  UNL1       -0.0320
     24 C           7.7331   -0.5950    0.0000 C.2     1  UNL1       -0.0765
     25 C          10.3312    3.9050    0.0000 C.3     1  UNL1       -0.0531
     26 C          10.3312    4.9050    0.0000 C.3     1  UNL1       -0.0531
     27 C          11.1972    5.4050    0.0000 C.3     1  UNL1       -0.0531
     28 C           7.5010   -4.4610    0.0000 C.2     1  UNL1       -0.1000
     29 C          11.1972    6.4050    0.0000 C.3     1  UNL1       -0.0533
     30 C           8.5991   -1.0950    0.0000 C.3     1  UNL1       -0.0438
     31 C          12.0632    6.9050    0.0000 C.3     1  UNL1       -0.0559
     32 C          12.0632    7.9050    0.0000 C.3     1  UNL1       -0.0653
     33 H           4.8059   -6.9050    0.0000 H       1  UNL1        0.0648
     34 H           5.6720   -5.7850    0.0000 H       1  UNL1        0.0671
     35 H           3.4030   -6.7150    0.0000 H       1  UNL1        0.0647
     36 H           5.1350   -4.4750    0.0000 H       1  UNL1        0.0938
     37 H           3.4030   -4.4750    0.0000 H       1  UNL1        0.0647
     38 H           1.9264   -4.4873    0.0000 H       1  UNL1        0.0584
     39 H           2.3249   -5.1776    0.0000 H       1  UNL1        0.0584
     40 H           5.7890   -2.0124    0.0000 H       1  UNL1        0.0299
     41 H           5.3905   -2.7027    0.0000 H       1  UNL1        0.0299
     42 H           5.0010   -2.9750    0.0000 H       1  UNL1        0.0260
     43 H           4.3810   -3.5950    0.0000 H       1  UNL1        0.0260
     44 H           5.0010   -4.2150    0.0000 H       1  UNL1        0.0260
     45 H           7.0791   -2.6776    0.0000 H       1  UNL1        0.0308
     46 H           7.4776   -1.9873    0.0000 H       1  UNL1        0.0308
     47 H           3.7320   -7.9050    0.0000 H       1  UNL1        0.2100
     48 H           6.0010   -7.2150    0.0000 H       1  UNL1        0.2101
     49 H           2.0000   -6.2850    0.0000 H       1  UNL1        0.2100
     50 H           7.3110   -3.0581    0.0000 H       1  UNL1        0.0594
     51 H           6.3301   -0.7850    0.0000 H       1  UNL1        0.0572
     52 H           8.3871    2.4876    0.0000 H       1  UNL1        0.0265
     53 H           7.9885    1.7973    0.0000 H       1  UNL1        0.0265
     54 H           9.6772    1.8224    0.0000 H       1  UNL1        0.0265
     55 H          10.0757    2.5127    0.0000 H       1  UNL1        0.0265
     56 H           8.8112    0.3224    0.0000 H       1  UNL1        0.0268
     57 H           9.2097    1.0127    0.0000 H       1  UNL1        0.0268
     58 H           9.2531    3.9876    0.0000 H       1  UNL1        0.0265
     59 H           8.8546    3.2973    0.0000 H       1  UNL1        0.0265
     60 H           7.5210    0.9876    0.0000 H       1  UNL1        0.0310
     61 H           7.1225    0.2973    0.0000 H       1  UNL1        0.0310
     62 H          10.5432    3.3224    0.0000 H       1  UNL1        0.0265
     63 H          10.9417    4.0127    0.0000 H       1  UNL1        0.0265
     64 H          10.1191    5.4876    0.0000 H       1  UNL1        0.0265
     65 H           9.7206    4.7973    0.0000 H       1  UNL1        0.0265
     66 H           2.0000   -3.2850    0.0000 H       1  UNL1        0.2095
     67 H          11.4092    4.8224    0.0000 H       1  UNL1        0.0265
     68 H          11.8078    5.5127    0.0000 H       1  UNL1        0.0265
     69 H           7.1910   -4.9980    0.0000 H       1  UNL1        0.0533
     70 H           8.1210   -4.4610    0.0000 H       1  UNL1        0.0533
     71 H          10.9851    6.9876    0.0000 H       1  UNL1        0.0265
     72 H          10.5866    6.2973    0.0000 H       1  UNL1        0.0265
     73 H           8.2891   -1.6319    0.0000 H       1  UNL1        0.0274
     74 H           9.1360   -1.4050    0.0000 H       1  UNL1        0.0274
     75 H           8.9091   -0.5581    0.0000 H       1  UNL1        0.0274
     76 H          12.2753    6.3224    0.0000 H       1  UNL1        0.0263
     77 H          12.6738    7.0127    0.0000 H       1  UNL1        0.0263
     78 H          12.6832    7.9050    0.0000 H       1  UNL1        0.0230
     79 H          12.0632    8.5250    0.0000 H       1  UNL1        0.0230
     80 H          11.4432    7.9050    0.0000 H       1  UNL1        0.0230
@<TRIPOS>BOND
     1     1    10    1
     2     1    11    1
     3    10     2    1
     4    12     2    1
     5     7     3    1
     6     3    47    1
     7     8     4    1
     8     4    48    1
     9     9     5    1
    10     5    49    1
    11     6    13    1
    12     6    66    1
    13     7     8    1
    14     7     9    1
    15     7    33    1
    16     8    10    1
    17     8    34    1
    18     9    11    1
    19     9    35    1
    20    10    36    1
    21    11    13    1
    22    11    37    1
    23    12    14    1
    24    12    15    1
    25    12    17    1
    26    13    38    1
    27    13    39    1
    28    14    16    1
    29    14    40    1
    30    14    41    1
    31    15    42    1
    32    15    43    1
    33    15    44    1
    34    16    18    1
    35    16    45    1
    36    16    46    1
    37    17    28    2
    38    17    50    1
    39    18    24    2
    40    18    51    1
    41    19    20    1
    42    19    21    1
    43    19    52    1
    44    19    53    1
    45    20    22    1
    46    20    54    1
    47    20    55    1
    48    21    23    1
    49    21    56    1
    50    21    57    1
    51    22    25    1
    52    22    58    1
    53    22    59    1
    54    23    24    1
    55    23    60    1
    56    23    61    1
    57    24    30    1
    58    25    26    1
    59    25    62    1
    60    25    63    1
    61    26    27    1
    62    26    64    1
    63    26    65    1
    64    27    29    1
    65    27    67    1
    66    27    68    1
    67    28    69    1
    68    28    70    1
    69    29    31    1
    70    29    71    1
    71    29    72    1
    72    30    73    1
    73    30    74    1
    74    30    75    1
    75    31    32    1
    76    31    76    1
    77    31    77    1
    78    32    78    1
    79    32    79    1
    80    32    80    1
