@<TRIPOS>MOLECULE
IMPHY006110
 50 52 0 0 0
SMALL
GASTEIGER

@<TRIPOS>ATOM
      1 O           3.7230   -2.5082    0.0000 O.3     1  UNL1       -0.4568
      2 O           6.4125    0.6571    0.0000 O.3     1  UNL1       -0.4552
      3 O           4.5447    0.6571    0.0000 O.3     1  UNL1       -0.3874
      4 O           8.0559   -2.5884    0.0000 O.2     1  UNL1       -0.2924
      5 O           2.0000   -2.0761    0.0000 O.2     1  UNL1       -0.2453
      6 O           4.8520    1.4086    0.0000 O.2     1  UNL1       -0.2453
      7 C           5.4786   -2.4345    0.0000 C.3     1  UNL1        0.0282
      8 C           6.3796   -2.0006    0.0000 C.3     1  UNL1        0.0374
      9 C           4.5777   -2.0006    0.0000 C.3     1  UNL1        0.1199
     10 C           6.6021   -1.0257    0.0000 C.3     1  UNL1        0.0063
     11 C           4.3551   -1.0257    0.0000 C.3     1  UNL1        0.0574
     12 C           5.9786   -0.2438    0.0000 C.3     1  UNL1        0.1330
     13 C           4.9786   -0.2438    0.0000 C.3     1  UNL1        0.1027
     14 C           5.6146   -3.4192    0.0000 C.2     1  UNL1       -0.0620
     15 C           7.0647   -2.7209    0.0000 C.2     1  UNL1        0.1602
     16 C           3.3648   -0.9391    0.0000 C.2     1  UNL1        0.0387
     17 C           7.5770   -0.8032    0.0000 C.3     1  UNL1       -0.0583
     18 C           6.5929   -3.5959    0.0000 C.2     1  UNL1       -0.0195
     19 C           2.9749   -1.8536    0.0000 C.2     1  UNL1        0.3354
     20 C           4.8930   -4.1115    0.0000 C.3     1  UNL1       -0.0430
     21 C           2.8504   -0.0816    0.0000 C.2     1  UNL1       -0.0882
     22 C           5.8492    1.4834    0.0000 C.2     1  UNL1        0.3349
     23 C           6.2831    2.3843    0.0000 C.2     1  UNL1        0.0293
     24 C           7.2803    2.4591    0.0000 C.3     1  UNL1       -0.0333
     25 C           5.7198    3.2106    0.0000 C.2     1  UNL1       -0.0774
     26 C           6.1536    4.1115    0.0000 C.3     1  UNL1       -0.0461
     27 H           4.7916   -2.9350    0.0000 H       1  UNL1        0.0389
     28 H           7.1993   -1.7755    0.0000 H       1  UNL1        0.0391
     29 H           4.6147   -2.8498    0.0000 H       1  UNL1        0.0747
     30 H           6.8829   -0.2234    0.0000 H       1  UNL1        0.0342
     31 H           4.0200   -0.2445    0.0000 H       1  UNL1        0.0414
     32 H           5.5264    0.4759    0.0000 H       1  UNL1        0.0763
     33 H           5.4309    0.4759    0.0000 H       1  UNL1        0.0638
     34 H           7.7150   -1.4076    0.0000 H       1  UNL1        0.0234
     35 H           8.1815   -0.6652    0.0000 H       1  UNL1        0.0234
     36 H           7.4391   -0.1987    0.0000 H       1  UNL1        0.0234
     37 H           6.8619   -4.1545    0.0000 H       1  UNL1        0.0652
     38 H           4.4638   -3.6642    0.0000 H       1  UNL1        0.0275
     39 H           4.4456   -4.5408    0.0000 H       1  UNL1        0.0275
     40 H           5.3223   -4.5589    0.0000 H       1  UNL1        0.0275
     41 H           3.9265    0.7035    0.0000 H       1  UNL1        0.2100
     42 H           3.1514    0.4605    0.0000 H       1  UNL1        0.0540
     43 H           2.2305   -0.0919    0.0000 H       1  UNL1        0.0540
     44 H           7.3266    1.8408    0.0000 H       1  UNL1        0.0280
     45 H           7.8986    2.5054    0.0000 H       1  UNL1        0.0280
     46 H           7.2340    3.0773    0.0000 H       1  UNL1        0.0280
     47 H           5.1015    3.1642    0.0000 H       1  UNL1        0.0574
     48 H           6.7122    3.8425    0.0000 H       1  UNL1        0.0272
     49 H           6.4226    4.6701    0.0000 H       1  UNL1        0.0272
     50 H           5.5950    4.3805    0.0000 H       1  UNL1        0.0272
@<TRIPOS>BOND
     1     1     9    1
     2     1    19    1
     3     2    12    1
     4     2    22    1
     5     3    13    1
     6     3    41    1
     7     4    15    2
     8     5    19    2
     9     6    22    2
    10     7     8    1
    11     7     9    1
    12     7    14    1
    13     7    27    1
    14     8    10    1
    15     8    15    1
    16     8    28    1
    17     9    11    1
    18     9    29    1
    19    10    12    1
    20    10    17    1
    21    10    30    1
    22    11    13    1
    23    11    16    1
    24    11    31    1
    25    12    13    1
    26    12    32    1
    27    13    33    1
    28    14    18    2
    29    14    20    1
    30    15    18    1
    31    16    19    1
    32    16    21    2
    33    17    34    1
    34    17    35    1
    35    17    36    1
    36    18    37    1
    37    20    38    1
    38    20    39    1
    39    20    40    1
    40    21    42    1
    41    21    43    1
    42    22    23    1
    43    23    24    1
    44    23    25    2
    45    24    44    1
    46    24    45    1
    47    24    46    1
    48    25    26    1
    49    25    47    1
    50    26    48    1
    51    26    49    1
    52    26    50    1
