@<TRIPOS>MOLECULE
IMPHY006395
 31 30 0 0 0
SMALL
GASTEIGER

@<TRIPOS>ATOM
      1 O           2.5369    0.7500    0.0000 O.3     1  UNL1       -0.3950
      2 C           5.1350    0.2500    0.0000 C.3     1  UNL1       -0.0418
      3 C           6.0010    0.7500    0.0000 C.3     1  UNL1       -0.0501
      4 C           6.8671    0.2500    0.0000 C.3     1  UNL1       -0.0491
      5 C           4.2690    0.7500    0.0000 C.3     1  UNL1       -0.0271
      6 C           5.1350   -0.7500    0.0000 C.3     1  UNL1       -0.0623
      7 C           7.7331    0.7500    0.0000 C.3     1  UNL1       -0.0322
      8 C           3.4030    0.2500    0.0000 C.3     1  UNL1        0.0444
      9 C           8.5991    0.2500    0.0000 C.2     1  UNL1       -0.0797
     10 C           9.4651    0.7500    0.0000 C.3     1  UNL1       -0.0440
     11 C           8.5991   -0.7500    0.0000 C.2     1  UNL1       -0.0997
     12 H           5.8711   -0.1750    0.0000 H       1  UNL1        0.0299
     13 H           6.3996    1.2250    0.0000 H       1  UNL1        0.0268
     14 H           5.6025    1.2250    0.0000 H       1  UNL1        0.0268
     15 H           6.4685   -0.2249    0.0000 H       1  UNL1        0.0268
     16 H           7.2656   -0.2249    0.0000 H       1  UNL1        0.0268
     17 H           4.6675    1.2250    0.0000 H       1  UNL1        0.0290
     18 H           3.8705    1.2250    0.0000 H       1  UNL1        0.0290
     19 H           4.5150   -0.7500    0.0000 H       1  UNL1        0.0232
     20 H           5.1350   -1.3700    0.0000 H       1  UNL1        0.0232
     21 H           5.7550   -0.7500    0.0000 H       1  UNL1        0.0232
     22 H           8.1316    1.2250    0.0000 H       1  UNL1        0.0310
     23 H           7.3346    1.2250    0.0000 H       1  UNL1        0.0310
     24 H           3.0044   -0.2249    0.0000 H       1  UNL1        0.0557
     25 H           3.8015   -0.2249    0.0000 H       1  UNL1        0.0557
     26 H           9.7751    0.2131    0.0000 H       1  UNL1        0.0274
     27 H          10.0021    1.0600    0.0000 H       1  UNL1        0.0274
     28 H           9.1551    1.2869    0.0000 H       1  UNL1        0.0274
     29 H           2.0000    0.4400    0.0000 H       1  UNL1        0.2094
     30 H           8.0622   -1.0600    0.0000 H       1  UNL1        0.0534
     31 H           9.1360   -1.0600    0.0000 H       1  UNL1        0.0534
@<TRIPOS>BOND
     1     1     8    1
     2     1    29    1
     3     2     3    1
     4     2     5    1
     5     2     6    1
     6     2    12    1
     7     3     4    1
     8     3    13    1
     9     3    14    1
    10     4     7    1
    11     4    15    1
    12     4    16    1
    13     5     8    1
    14     5    17    1
    15     5    18    1
    16     6    19    1
    17     6    20    1
    18     6    21    1
    19     7     9    1
    20     7    22    1
    21     7    23    1
    22     8    24    1
    23     8    25    1
    24     9    10    1
    25     9    11    2
    26    10    26    1
    27    10    27    1
    28    10    28    1
    29    11    30    1
    30    11    31    1
