@<TRIPOS>MOLECULE
IMPHY016476
 33 32 0 0 0
SMALL
GASTEIGER

@<TRIPOS>ATOM
      1 O           4.5981    1.5000    0.0000 O.2     1  UNL1       -0.2968
      2 O           7.1962   -1.0000    0.0000 O.2     1  UNL1       -0.2977
      3 C           3.7320    0.0000    0.0000 C.3     1  UNL1        0.0257
      4 C           2.8660   -0.5000    0.0000 C.3     1  UNL1       -0.0349
      5 C           4.5981    0.5000    0.0000 C.2     1  UNL1        0.1396
      6 C           3.2320    0.8660    0.0000 C.3     1  UNL1       -0.0528
      7 C           4.2320   -0.8660    0.0000 C.3     1  UNL1       -0.0528
      8 C           2.0000   -0.0000    0.0000 C.3     1  UNL1       -0.0618
      9 C           2.8660   -1.5000    0.0000 C.3     1  UNL1       -0.0618
     10 C           5.4641    0.0000    0.0000 C.3     1  UNL1        0.0130
     11 C           6.3301    0.5000    0.0000 C.3     1  UNL1        0.0122
     12 C           7.1962   -0.0000    0.0000 C.2     1  UNL1        0.1307
     13 C           8.0622    0.5000    0.0000 C.3     1  UNL1       -0.0061
     14 H           2.8660    0.1200    0.0000 H       1  UNL1        0.0305
     15 H           3.7690    1.1760    0.0000 H       1  UNL1        0.0239
     16 H           2.9220    1.4030    0.0000 H       1  UNL1        0.0239
     17 H           2.6951    0.5560    0.0000 H       1  UNL1        0.0239
     18 H           3.6951   -1.1760    0.0000 H       1  UNL1        0.0239
     19 H           4.5420   -1.4030    0.0000 H       1  UNL1        0.0239
     20 H           4.7690   -0.5560    0.0000 H       1  UNL1        0.0239
     21 H           2.3100    0.5369    0.0000 H       1  UNL1        0.0233
     22 H           1.4631    0.3100    0.0000 H       1  UNL1        0.0233
     23 H           1.6900   -0.5369    0.0000 H       1  UNL1        0.0233
     24 H           2.2460   -1.5000    0.0000 H       1  UNL1        0.0233
     25 H           2.8660   -2.1200    0.0000 H       1  UNL1        0.0233
     26 H           3.4860   -1.5000    0.0000 H       1  UNL1        0.0233
     27 H           5.0656   -0.4749    0.0000 H       1  UNL1        0.0346
     28 H           5.8626   -0.4749    0.0000 H       1  UNL1        0.0346
     29 H           6.7287    0.9749    0.0000 H       1  UNL1        0.0345
     30 H           5.9316    0.9749    0.0000 H       1  UNL1        0.0345
     31 H           8.3722   -0.0369    0.0000 H       1  UNL1        0.0306
     32 H           8.5991    0.8100    0.0000 H       1  UNL1        0.0306
     33 H           7.7522    1.0369    0.0000 H       1  UNL1        0.0306
@<TRIPOS>BOND
     1     1     5    2
     2     2    12    2
     3     3     4    1
     4     3     5    1
     5     3     6    1
     6     3     7    1
     7     4     8    1
     8     4     9    1
     9     4    14    1
    10     5    10    1
    11     6    15    1
    12     6    16    1
    13     6    17    1
    14     7    18    1
    15     7    19    1
    16     7    20    1
    17     8    21    1
    18     8    22    1
    19     8    23    1
    20     9    24    1
    21     9    25    1
    22     9    26    1
    23    10    11    1
    24    10    27    1
    25    10    28    1
    26    11    12    1
    27    11    29    1
    28    11    30    1
    29    12    13    1
    30    13    31    1
    31    13    32    1
    32    13    33    1
