@<TRIPOS>MOLECULE
IMPHY009221
 35 37 0 0 0
SMALL
GASTEIGER

@<TRIPOS>ATOM
      1 O           6.0812   -0.0057    0.0000 O.2     1  UNL1       -0.4546
      2 O           7.6648   -0.9330    0.0000 O.3     1  UNL1       -0.4906
      3 O          10.6648    0.7990    0.0000 O.3     1  UNL1       -0.4913
      4 O           9.6648   -0.9330    0.0000 O.3     1  UNL1       -0.5009
      5 O           2.5369   -0.2010    0.0000 O.3     1  UNL1       -0.5066
      6 C           6.6648    0.7990    0.0000 C.ar    1  UNL1        0.1399
      7 C           7.6648    0.7990    0.0000 C.ar    1  UNL1        0.0628
      8 C           5.1350    1.2990    0.0000 C.ar    1  UNL1        0.0210
      9 C           5.1350    0.2990    0.0000 C.ar    1  UNL1        0.1391
     10 C           6.0812    1.6038    0.0000 C.ar    1  UNL1       -0.0080
     11 C           8.1648   -0.0670    0.0000 C.ar    1  UNL1        0.1756
     12 C           8.1648    1.6651    0.0000 C.ar    1  UNL1       -0.0439
     13 C           4.2690    1.7990    0.0000 C.ar    1  UNL1       -0.0475
     14 C           9.1648   -0.0670    0.0000 C.ar    1  UNL1        0.2017
     15 C           4.2690   -0.2010    0.0000 C.ar    1  UNL1        0.0227
     16 C           9.6648    0.7990    0.0000 C.ar    1  UNL1        0.1650
     17 C           9.1648    1.6651    0.0000 C.ar    1  UNL1       -0.0154
     18 C           3.4030    0.2990    0.0000 C.ar    1  UNL1        0.1204
     19 C           3.4030    1.2990    0.0000 C.ar    1  UNL1       -0.0194
     20 C           8.1648   -1.7990    0.0000 C.3     1  UNL1        0.0790
     21 C          11.1648    1.6651    0.0000 C.3     1  UNL1        0.0790
     22 H           6.2738    2.1931    0.0000 H       1  UNL1        0.0661
     23 H           7.8548    2.2020    0.0000 H       1  UNL1        0.0627
     24 H           4.2690    2.4190    0.0000 H       1  UNL1        0.0626
     25 H           4.2690   -0.8210    0.0000 H       1  UNL1        0.0691
     26 H           9.4748    2.2020    0.0000 H       1  UNL1        0.0655
     27 H           2.8660    1.6090    0.0000 H       1  UNL1        0.0654
     28 H          10.2848   -0.9330    0.0000 H       1  UNL1        0.2924
     29 H           7.6279   -2.1090    0.0000 H       1  UNL1        0.0660
     30 H           8.4748   -2.3360    0.0000 H       1  UNL1        0.0660
     31 H           8.7018   -1.4890    0.0000 H       1  UNL1        0.0660
     32 H           2.0000    0.1090    0.0000 H       1  UNL1        0.2921
     33 H          11.7018    1.3551    0.0000 H       1  UNL1        0.0660
     34 H          11.4748    2.2020    0.0000 H       1  UNL1        0.0660
     35 H          10.6279    1.9751    0.0000 H       1  UNL1        0.0660
@<TRIPOS>BOND
     1     1     6   ar
     2     1     9   ar
     3     2    11    1
     4     2    20    1
     5     3    16    1
     6     3    21    1
     7     4    14    1
     8     4    28    1
     9     5    18    1
    10     5    32    1
    11     6     7    1
    12     6    10   ar
    13     7    11   ar
    14     7    12   ar
    15     8     9   ar
    16     8    10   ar
    17     8    13   ar
    18     9    15   ar
    19    10    22    1
    20    11    14   ar
    21    12    17   ar
    22    12    23    1
    23    13    19   ar
    24    13    24    1
    25    14    16   ar
    26    15    18   ar
    27    15    25    1
    28    16    17   ar
    29    17    26    1
    30    18    19   ar
    31    19    27    1
    32    20    29    1
    33    20    30    1
    34    20    31    1
    35    21    33    1
    36    21    34    1
    37    21    35    1
