@<TRIPOS>MOLECULE
IMPHY015459
 29 28 0 0 0
SMALL
GASTEIGER

@<TRIPOS>ATOM
      1 O           9.7942    0.2500    0.0000 O.3     1  UNL1       -0.3950
      2 O           2.8660   -0.7500    0.0000 O.2     1  UNL1       -0.2977
      3 C           6.3301    0.2500    0.0000 C.3     1  UNL1       -0.0530
      4 C           5.4641    0.7500    0.0000 C.3     1  UNL1       -0.0527
      5 C           7.1962    0.7500    0.0000 C.3     1  UNL1       -0.0510
      6 C           4.5981    0.2500    0.0000 C.3     1  UNL1       -0.0464
      7 C           8.0622    0.2500    0.0000 C.3     1  UNL1       -0.0297
      8 C           3.7320    0.7500    0.0000 C.3     1  UNL1        0.0055
      9 C           8.9282    0.7500    0.0000 C.3     1  UNL1        0.0442
     10 C           2.8660    0.2500    0.0000 C.2     1  UNL1        0.1303
     11 C           2.0000    0.7500    0.0000 C.3     1  UNL1       -0.0061
     12 H           5.9316   -0.2249    0.0000 H       1  UNL1        0.0265
     13 H           6.7287   -0.2249    0.0000 H       1  UNL1        0.0265
     14 H           5.8626    1.2250    0.0000 H       1  UNL1        0.0265
     15 H           5.0656    1.2250    0.0000 H       1  UNL1        0.0265
     16 H           7.5947    1.2250    0.0000 H       1  UNL1        0.0266
     17 H           6.7976    1.2250    0.0000 H       1  UNL1        0.0266
     18 H           4.1996   -0.2249    0.0000 H       1  UNL1        0.0269
     19 H           4.9966   -0.2249    0.0000 H       1  UNL1        0.0269
     20 H           7.6636   -0.2249    0.0000 H       1  UNL1        0.0287
     21 H           8.4607   -0.2249    0.0000 H       1  UNL1        0.0287
     22 H           4.1306    1.2250    0.0000 H       1  UNL1        0.0341
     23 H           3.3335    1.2250    0.0000 H       1  UNL1        0.0341
     24 H           9.3267    1.2250    0.0000 H       1  UNL1        0.0557
     25 H           8.5297    1.2250    0.0000 H       1  UNL1        0.0557
     26 H           2.3100    1.2869    0.0000 H       1  UNL1        0.0306
     27 H           1.4631    1.0600    0.0000 H       1  UNL1        0.0306
     28 H           1.6900    0.2131    0.0000 H       1  UNL1        0.0306
     29 H          10.3312    0.5600    0.0000 H       1  UNL1        0.2094
@<TRIPOS>BOND
     1     1     9    1
     2     1    29    1
     3     2    10    2
     4     3     4    1
     5     3     5    1
     6     3    12    1
     7     3    13    1
     8     4     6    1
     9     4    14    1
    10     4    15    1
    11     5     7    1
    12     5    16    1
    13     5    17    1
    14     6     8    1
    15     6    18    1
    16     6    19    1
    17     7     9    1
    18     7    20    1
    19     7    21    1
    20     8    10    1
    21     8    22    1
    22     8    23    1
    23     9    24    1
    24     9    25    1
    25    10    11    1
    26    11    26    1
    27    11    27    1
    28    11    28    1
