@<TRIPOS>MOLECULE
IMPHY008521
 52 55 0 0 0
SMALL
GASTEIGER

@<TRIPOS>ATOM
      1 O           5.2060   -0.4063    0.0000 O.3     1  UNL1       -0.4510
      2 O           4.2690    0.2026    0.0000 O.3     1  UNL1       -0.4910
      3 O           6.8312   -3.0706    0.0000 O.3     1  UNL1       -0.4906
      4 O           2.5369    1.2026    0.0000 O.3     1  UNL1       -0.5009
      5 O           4.8999   -2.1561    0.0000 O.2     1  UNL1       -0.2448
      6 O           2.5369    3.2026    0.0000 O.3     1  UNL1       -0.5032
      7 O           8.7929   -2.6808    0.0000 O.3     1  UNL1       -0.4914
      8 N           6.9350    1.6818    0.0000 N.3     1  UNL1       -0.2946
      9 C           6.0290    1.1679    0.0000 C.3     1  UNL1        0.0808
     10 C           6.0174    0.1680    0.0000 C.3     1  UNL1        0.1489
     11 C           5.1350    1.7026    0.0000 C.ar    1  UNL1        0.0223
     12 C           6.9350    2.7234    0.0000 C.3     1  UNL1        0.0033
     13 C           6.0290    3.2372    0.0000 C.3     1  UNL1       -0.0143
     14 C           5.1350    2.7026    0.0000 C.ar    1  UNL1       -0.0342
     15 C           6.8153   -0.4249    0.0000 C.ar    1  UNL1        0.0123
     16 C           4.2690    1.2026    0.0000 C.ar    1  UNL1        0.1700
     17 C           7.7991    1.1784    0.0000 C.3     1  UNL1       -0.0120
     18 C           6.4937   -1.3718    0.0000 C.ar    1  UNL1        0.1108
     19 C           4.2690    3.2026    0.0000 C.ar    1  UNL1       -0.0128
     20 C           5.4997   -1.3560    0.0000 C.2     1  UNL1        0.3439
     21 C           7.7962   -0.2300    0.0000 C.ar    1  UNL1       -0.0505
     22 C           3.4030    1.7026    0.0000 C.ar    1  UNL1        0.2011
     23 C           3.4030    2.7026    0.0000 C.ar    1  UNL1        0.1623
     24 C           7.1529   -2.1237    0.0000 C.ar    1  UNL1        0.1758
     25 C           8.4553   -0.9820    0.0000 C.ar    1  UNL1       -0.0159
     26 C           8.1337   -1.9288    0.0000 C.ar    1  UNL1        0.1623
     27 C           3.4030   -0.2974    0.0000 C.3     1  UNL1        0.0790
     28 C           7.4904   -3.8226    0.0000 C.3     1  UNL1        0.0790
     29 C           9.7737   -2.4859    0.0000 C.3     1  UNL1        0.0790
     30 H           6.7610    0.7358    0.0000 H       1  UNL1        0.0554
     31 H           5.2647    0.5629    0.0000 H       1  UNL1        0.0805
     32 H           7.5459    2.6173    0.0000 H       1  UNL1        0.0430
     33 H           7.1441    3.3071    0.0000 H       1  UNL1        0.0430
     34 H           6.4226    3.7162    0.0000 H       1  UNL1        0.0326
     35 H           5.6244    3.7070    0.0000 H       1  UNL1        0.0326
     36 H           7.4870    0.6427    0.0000 H       1  UNL1        0.0391
     37 H           8.3348    0.8664    0.0000 H       1  UNL1        0.0391
     38 H           8.1112    1.7142    0.0000 H       1  UNL1        0.0391
     39 H           4.2690    3.8226    0.0000 H       1  UNL1        0.0658
     40 H           7.9956    0.3570    0.0000 H       1  UNL1        0.0623
     41 H           9.0634   -0.8611    0.0000 H       1  UNL1        0.0655
     42 H           2.0000    1.5126    0.0000 H       1  UNL1        0.2924
     43 H           2.5369    3.8226    0.0000 H       1  UNL1        0.2923
     44 H           3.0930    0.2395    0.0000 H       1  UNL1        0.0660
     45 H           2.8660   -0.6074    0.0000 H       1  UNL1        0.0660
     46 H           3.7130   -0.8344    0.0000 H       1  UNL1        0.0660
     47 H           7.0242   -4.2313    0.0000 H       1  UNL1        0.0660
     48 H           7.8991   -4.2888    0.0000 H       1  UNL1        0.0660
     49 H           7.9567   -3.4139    0.0000 H       1  UNL1        0.0660
     50 H           9.8946   -3.0940    0.0000 H       1  UNL1        0.0660
     51 H          10.3818   -2.3651    0.0000 H       1  UNL1        0.0660
     52 H           9.6529   -1.8778    0.0000 H       1  UNL1        0.0660
@<TRIPOS>BOND
     1     1    10    1
     2     1    20    1
     3     2    16    1
     4     2    27    1
     5     3    24    1
     6     3    28    1
     7     4    22    1
     8     4    42    1
     9     5    20    2
    10     6    23    1
    11     6    43    1
    12     7    26    1
    13     7    29    1
    14     8     9    1
    15     8    12    1
    16     8    17    1
    17     9    10    1
    18     9    11    1
    19     9    30    1
    20    10    15    1
    21    10    31    1
    22    11    14   ar
    23    11    16   ar
    24    12    13    1
    25    12    32    1
    26    12    33    1
    27    13    14    1
    28    13    34    1
    29    13    35    1
    30    14    19   ar
    31    15    18   ar
    32    15    21   ar
    33    16    22   ar
    34    17    36    1
    35    17    37    1
    36    17    38    1
    37    18    20    1
    38    18    24   ar
    39    19    23   ar
    40    19    39    1
    41    21    25   ar
    42    21    40    1
    43    22    23   ar
    44    24    26   ar
    45    25    26   ar
    46    25    41    1
    47    27    44    1
    48    27    45    1
    49    27    46    1
    50    28    47    1
    51    28    48    1
    52    28    49    1
    53    29    50    1
    54    29    51    1
    55    29    52    1
