@<TRIPOS>MOLECULE
IMPHY011157
 38 41 0 0 0
SMALL
GASTEIGER

@<TRIPOS>ATOM
      1 O           2.8718   -0.4900    0.0000 O.3     1  UNL1       -0.4908
      2 O           2.8560   -2.5382    0.0000 O.3     1  UNL1       -0.4914
      3 O           6.3958    2.5383    0.0000 O.3     1  UNL1       -0.4945
      4 O           6.9733   -3.0290    0.0000 O.2     1  UNL1       -0.2698
      5 N           6.9919   -1.2715    0.0000 N.am    1  UNL1       -0.2809
      6 C           5.5080   -0.9931    0.0000 C.ar    1  UNL1        0.0198
      7 C           4.6419   -0.4931    0.0000 C.ar    1  UNL1        0.0377
      8 C           6.3740   -0.4931    0.0000 C.ar    1  UNL1        0.0430
      9 C           4.6419    0.5069    0.0000 C.ar    1  UNL1       -0.0029
     10 C           5.5240   -2.0347    0.0000 C.ar    1  UNL1        0.0502
     11 C           5.5080    1.0068    0.0000 C.ar    1  UNL1        0.0262
     12 C           6.3740    0.5069    0.0000 C.ar    1  UNL1       -0.0286
     13 C           3.7319   -1.0000    0.0000 C.ar    1  UNL1        0.1698
     14 C           6.5120   -2.1418    0.0000 C.2     1  UNL1        0.2490
     15 C           4.6260   -2.5624    0.0000 C.ar    1  UNL1       -0.0035
     16 C           3.7239   -2.0416    0.0000 C.ar    1  UNL1        0.1629
     17 C           5.5240    2.0484    0.0000 C.ar    1  UNL1        0.1278
     18 C           3.7319    1.0137    0.0000 C.ar    1  UNL1       -0.0531
     19 C           4.6260    2.5761    0.0000 C.ar    1  UNL1       -0.0193
     20 C           3.7239    2.0553    0.0000 C.ar    1  UNL1       -0.0577
     21 C           2.0000   -0.9800    0.0000 C.3     1  UNL1        0.0790
     22 C           2.8521   -3.5382    0.0000 C.3     1  UNL1        0.0790
     23 C           6.4073    3.5382    0.0000 C.3     1  UNL1        0.0788
     24 H           6.9109    0.8169    0.0000 H       1  UNL1        0.0643
     25 H           7.6098   -1.2198    0.0000 H       1  UNL1        0.1552
     26 H           4.6284   -3.1824    0.0000 H       1  UNL1        0.0663
     27 H           3.1986    0.6975    0.0000 H       1  UNL1        0.0624
     28 H           4.6284    3.1961    0.0000 H       1  UNL1        0.0654
     29 H           3.1858    2.3632    0.0000 H       1  UNL1        0.0619
     30 H           1.6962   -0.4395    0.0000 H       1  UNL1        0.0660
     31 H           1.4595   -1.2837    0.0000 H       1  UNL1        0.0660
     32 H           2.3038   -1.5204    0.0000 H       1  UNL1        0.0660
     33 H           2.2321   -3.5358    0.0000 H       1  UNL1        0.0660
     34 H           2.8497   -4.1582    0.0000 H       1  UNL1        0.0660
     35 H           3.4721   -3.5406    0.0000 H       1  UNL1        0.0660
     36 H           7.0273    3.5311    0.0000 H       1  UNL1        0.0660
     37 H           6.4145    4.1582    0.0000 H       1  UNL1        0.0660
     38 H           5.7874    3.5454    0.0000 H       1  UNL1        0.0660
@<TRIPOS>BOND
     1     1    13    1
     2     1    21    1
     3     2    16    1
     4     2    22    1
     5     3    17    1
     6     3    23    1
     7     4    14    2
     8     5     8    1
     9     5    14   am
    10     5    25    1
    11     6     7   ar
    12     6     8   ar
    13     6    10   ar
    14     7     9   ar
    15     7    13   ar
    16     8    12   ar
    17     9    11   ar
    18     9    18   ar
    19    10    14    1
    20    10    15   ar
    21    11    12   ar
    22    11    17   ar
    23    12    24    1
    24    13    16   ar
    25    15    16   ar
    26    15    26    1
    27    17    19   ar
    28    18    20   ar
    29    18    27    1
    30    19    20   ar
    31    19    28    1
    32    20    29    1
    33    21    30    1
    34    21    31    1
    35    21    32    1
    36    22    33    1
    37    22    34    1
    38    22    35    1
    39    23    36    1
    40    23    37    1
    41    23    38    1
