@<TRIPOS>MOLECULE
IMPHY016968
 46 46 0 0 0
SMALL
GASTEIGER

@<TRIPOS>ATOM
      1 C           2.0000    0.0712    0.0000 C.3     1  UNL1       -0.0531
      2 C           2.2588   -0.8947    0.0000 C.3     1  UNL1       -0.0531
      3 C           2.7071    0.7783    0.0000 C.3     1  UNL1       -0.0531
      4 C           3.2247   -1.1535    0.0000 C.3     1  UNL1       -0.0531
      5 C           2.7071    1.7784    0.0000 C.3     1  UNL1       -0.0531
      6 C           3.7247   -2.0195    0.0000 C.3     1  UNL1       -0.0531
      7 C           3.5731    2.2784    0.0000 C.3     1  UNL1       -0.0530
      8 C           4.6907   -2.2784    0.0000 C.3     1  UNL1       -0.0530
      9 C           4.4392    1.7784    0.0000 C.3     1  UNL1       -0.0528
     10 C           5.3978   -1.5712    0.0000 C.3     1  UNL1       -0.0528
     11 C           4.4392    0.7783    0.0000 C.3     1  UNL1       -0.0496
     12 C           6.3978   -1.5712    0.0000 C.3     1  UNL1       -0.0496
     13 C           5.3052    0.2783    0.0000 C.3     1  UNL1       -0.0348
     14 C           7.0372   -0.7217    0.0000 C.3     1  UNL1       -0.0348
     15 C           6.1712    0.7783    0.0000 C.2     1  UNL1       -0.0879
     16 C           7.0372    0.2783    0.0000 C.2     1  UNL1       -0.0879
     17 H           1.6444    0.5791    0.0000 H       1  UNL1        0.0265
     18 H           1.4381   -0.1908    0.0000 H       1  UNL1        0.0265
     19 H           1.6412   -0.9487    0.0000 H       1  UNL1        0.0265
     20 H           2.2048   -1.5123    0.0000 H       1  UNL1        0.0265
     21 H           3.0171    0.2414    0.0000 H       1  UNL1        0.0265
     22 H           3.3060    0.9388    0.0000 H       1  UNL1        0.0265
     23 H           3.8236   -0.9930    0.0000 H       1  UNL1        0.0265
     24 H           3.2247   -0.5335    0.0000 H       1  UNL1        0.0265
     25 H           2.4950    2.3610    0.0000 H       1  UNL1        0.0265
     26 H           2.0965    1.6707    0.0000 H       1  UNL1        0.0265
     27 H           3.1259   -2.1800    0.0000 H       1  UNL1        0.0265
     28 H           3.7247   -2.6395    0.0000 H       1  UNL1        0.0265
     29 H           3.9717    2.7533    0.0000 H       1  UNL1        0.0265
     30 H           3.1746    2.7533    0.0000 H       1  UNL1        0.0265
     31 H           4.4286   -2.8403    0.0000 H       1  UNL1        0.0265
     32 H           5.1985   -2.6340    0.0000 H       1  UNL1        0.0265
     33 H           5.0497    1.6707    0.0000 H       1  UNL1        0.0265
     34 H           4.6512    2.3610    0.0000 H       1  UNL1        0.0265
     35 H           5.5582   -0.9724    0.0000 H       1  UNL1        0.0265
     36 H           4.8608   -1.2612    0.0000 H       1  UNL1        0.0265
     37 H           3.8286    0.8860    0.0000 H       1  UNL1        0.0268
     38 H           4.2271    0.1957    0.0000 H       1  UNL1        0.0268
     39 H           6.2655   -2.1770    0.0000 H       1  UNL1        0.0268
     40 H           6.9613   -1.8298    0.0000 H       1  UNL1        0.0268
     41 H           4.9066   -0.1966    0.0000 H       1  UNL1        0.0307
     42 H           5.7037   -0.1966    0.0000 H       1  UNL1        0.0307
     43 H           7.3960   -1.2273    0.0000 H       1  UNL1        0.0307
     44 H           7.6280   -0.5334    0.0000 H       1  UNL1        0.0307
     45 H           6.1712    1.3984    0.0000 H       1  UNL1        0.0569
     46 H           7.5742    0.5883    0.0000 H       1  UNL1        0.0569
@<TRIPOS>BOND
     1     1     2    1
     2     1     3    1
     3     1    17    1
     4     1    18    1
     5     2     4    1
     6     2    19    1
     7     2    20    1
     8     3     5    1
     9     3    21    1
    10     3    22    1
    11     4     6    1
    12     4    23    1
    13     4    24    1
    14     5     7    1
    15     5    25    1
    16     5    26    1
    17     6     8    1
    18     6    27    1
    19     6    28    1
    20     7     9    1
    21     7    29    1
    22     7    30    1
    23     8    10    1
    24     8    31    1
    25     8    32    1
    26     9    11    1
    27     9    33    1
    28     9    34    1
    29    10    12    1
    30    10    35    1
    31    10    36    1
    32    11    13    1
    33    11    37    1
    34    11    38    1
    35    12    14    1
    36    12    39    1
    37    12    40    1
    38    13    15    1
    39    13    41    1
    40    13    42    1
    41    14    16    1
    42    14    43    1
    43    14    44    1
    44    15    16    2
    45    15    45    1
    46    16    46    1
