@<TRIPOS>MOLECULE
IMPHY013995
 39 41 0 0 0
SMALL
GASTEIGER

@<TRIPOS>ATOM
      1 O           6.0401   -0.0852    0.0000 O.3     1  UNL1       -0.4578
      2 O           6.6325   -1.7128    0.0000 O.2     1  UNL1       -0.2449
      3 O           2.4550   -0.4685    0.0000 O.3     1  UNL1       -0.4914
      4 O           2.1077   -2.4381    0.0000 O.3     1  UNL1       -0.5033
      5 N           8.5520    2.5118    0.0000 N.3     1  UNL1       -0.3103
      6 C           9.2886    1.5292    0.0000 C.3     1  UNL1        0.0113
      7 C           9.0298    0.5632    0.0000 C.3     1  UNL1        0.0113
      8 C          10.6876    1.0204    0.0000 C.3     1  UNL1       -0.0360
      9 C          10.4288    0.0544    0.0000 C.3     1  UNL1       -0.0360
     10 C           7.2554    1.2180    0.0000 C.3     1  UNL1       -0.0002
     11 C           7.8088   -0.3024    0.0000 C.3     1  UNL1       -0.0002
     12 C           6.9798    0.2568    0.0000 C.3     1  UNL1        0.1062
     13 C           5.8664   -1.0701    0.0000 C.2     1  UNL1        0.3396
     14 C           4.9267   -1.4121    0.0000 C.ar    1  UNL1        0.0627
     15 C           4.1607   -0.7693    0.0000 C.ar    1  UNL1       -0.0023
     16 C           4.7531   -2.3969    0.0000 C.ar    1  UNL1       -0.0441
     17 C           3.2210   -1.1113    0.0000 C.ar    1  UNL1        0.1620
     18 C           3.8134   -2.7389    0.0000 C.ar    1  UNL1       -0.0157
     19 C           3.0473   -2.0961    0.0000 C.ar    1  UNL1        0.1585
     20 C           2.6286    0.5163    0.0000 C.3     1  UNL1        0.0790
     21 H           9.6580    2.0271    0.0000 H       1  UNL1        0.0462
     22 H           9.1126   -0.0512    0.0000 H       1  UNL1        0.0462
     23 H          11.2816    0.8426    0.0000 H       1  UNL1        0.0281
     24 H          10.8825    1.6089    0.0000 H       1  UNL1        0.0281
     25 H          10.2338   -0.5341    0.0000 H       1  UNL1        0.0281
     26 H          11.0227   -0.1234    0.0000 H       1  UNL1        0.0281
     27 H           7.2504    1.8380    0.0000 H       1  UNL1        0.0316
     28 H           6.6411    1.3018    0.0000 H       1  UNL1        0.0316
     29 H           7.4030   -0.7711    0.0000 H       1  UNL1        0.0316
     30 H           8.2255   -0.7615    0.0000 H       1  UNL1        0.0316
     31 H           6.5263    0.6796    0.0000 H       1  UNL1        0.0735
     32 H           8.2420    3.0487    0.0000 H       1  UNL1        0.1225
     33 H           4.2684   -0.1587    0.0000 H       1  UNL1        0.0663
     34 H           5.2280   -2.7954    0.0000 H       1  UNL1        0.0627
     35 H           3.7057   -3.3495    0.0000 H       1  UNL1        0.0655
     36 H           2.0000   -3.0487    0.0000 H       1  UNL1        0.2923
     37 H           3.2392    0.4086    0.0000 H       1  UNL1        0.0660
     38 H           2.7363    1.1269    0.0000 H       1  UNL1        0.0660
     39 H           2.0180    0.6239    0.0000 H       1  UNL1        0.0660
@<TRIPOS>BOND
     1     1    12    1
     2     1    13    1
     3     2    13    2
     4     3    17    1
     5     3    20    1
     6     4    19    1
     7     4    36    1
     8     5     6    1
     9     5     7    1
    10     5    32    1
    11     6     8    1
    12     6    10    1
    13     6    21    1
    14     7     9    1
    15     7    11    1
    16     7    22    1
    17     8     9    1
    18     8    23    1
    19     8    24    1
    20     9    25    1
    21     9    26    1
    22    10    12    1
    23    10    27    1
    24    10    28    1
    25    11    12    1
    26    11    29    1
    27    11    30    1
    28    12    31    1
    29    13    14    1
    30    14    15   ar
    31    14    16   ar
    32    15    17   ar
    33    15    33    1
    34    16    18   ar
    35    16    34    1
    36    17    19   ar
    37    18    19   ar
    38    18    35    1
    39    20    37    1
    40    20    38    1
    41    20    39    1
