@<TRIPOS>MOLECULE
IMPHY004977
 50 51 0 0 0
SMALL
GASTEIGER

@<TRIPOS>ATOM
      1 O           5.1350   -1.6550    0.0000 O.3     1  UNL1       -0.3313
      2 O           6.8671   -1.6550    0.0000 O.3     1  UNL1       -0.4535
      3 O           5.1350   -4.6550    0.0000 O.3     1  UNL1       -0.3864
      4 O           3.4030   -3.6550    0.0000 O.3     1  UNL1       -0.3865
      5 O           6.8671   -3.6550    0.0000 O.3     1  UNL1       -0.3829
      6 O           2.5369   -2.1550    0.0000 O.3     1  UNL1       -0.3924
      7 O           8.5991   -0.6550    0.0000 O.3     1  UNL1       -0.4913
      8 O           5.1350   -0.6550    0.0000 O.3     1  UNL1       -0.4913
      9 O           8.5991    4.3450    0.0000 O.3     1  UNL1       -0.3910
     10 C           5.1350   -3.6550    0.0000 C.3     1  UNL1        0.1152
     11 C           4.2690   -3.1550    0.0000 C.3     1  UNL1        0.1120
     12 C           6.0010   -3.1550    0.0000 C.3     1  UNL1        0.1454
     13 C           4.2690   -2.1550    0.0000 C.3     1  UNL1        0.1140
     14 C           6.0010   -2.1550    0.0000 C.3     1  UNL1        0.2311
     15 C           3.4030   -1.6550    0.0000 C.3     1  UNL1        0.0731
     16 C           6.8671   -0.6550    0.0000 C.ar    1  UNL1        0.2067
     17 C           7.7331   -0.1550    0.0000 C.ar    1  UNL1        0.1658
     18 C           6.0010   -0.1550    0.0000 C.ar    1  UNL1        0.1658
     19 C           7.7331    0.8450    0.0000 C.ar    1  UNL1       -0.0089
     20 C           6.0010    0.8450    0.0000 C.ar    1  UNL1       -0.0089
     21 C           6.8671    1.3450    0.0000 C.ar    1  UNL1       -0.0181
     22 C           6.8671    2.3450    0.0000 C.2     1  UNL1       -0.0562
     23 C           9.4651   -0.1550    0.0000 C.3     1  UNL1        0.0790
     24 C           4.2690   -0.1550    0.0000 C.3     1  UNL1        0.0790
     25 C           7.7331    2.8450    0.0000 C.2     1  UNL1       -0.0584
     26 C           7.7331    3.8450    0.0000 C.3     1  UNL1        0.0627
     27 H           5.6720   -3.9650    0.0000 H       1  UNL1        0.0648
     28 H           4.2690   -3.7750    0.0000 H       1  UNL1        0.0647
     29 H           6.5380   -2.8450    0.0000 H       1  UNL1        0.0683
     30 H           4.2690   -1.5350    0.0000 H       1  UNL1        0.0647
     31 H           6.0010   -1.5350    0.0000 H       1  UNL1        0.1084
     32 H           3.8015   -1.1800    0.0000 H       1  UNL1        0.0584
     33 H           3.0044   -1.1800    0.0000 H       1  UNL1        0.0584
     34 H           4.5981   -4.9650    0.0000 H       1  UNL1        0.2100
     35 H           3.4030   -4.2750    0.0000 H       1  UNL1        0.2100
     36 H           6.8671   -4.2750    0.0000 H       1  UNL1        0.2102
     37 H           2.0000   -1.8450    0.0000 H       1  UNL1        0.2095
     38 H           8.2700    1.1550    0.0000 H       1  UNL1        0.0661
     39 H           5.4641    1.1550    0.0000 H       1  UNL1        0.0661
     40 H           6.3301    2.6550    0.0000 H       1  UNL1        0.0621
     41 H           9.7751   -0.6919    0.0000 H       1  UNL1        0.0660
     42 H          10.0021    0.1550    0.0000 H       1  UNL1        0.0660
     43 H           9.1551    0.3819    0.0000 H       1  UNL1        0.0660
     44 H           4.5790    0.3819    0.0000 H       1  UNL1        0.0660
     45 H           3.7320    0.1550    0.0000 H       1  UNL1        0.0660
     46 H           3.9590   -0.6919    0.0000 H       1  UNL1        0.0660
     47 H           8.2700    2.5350    0.0000 H       1  UNL1        0.0595
     48 H           7.5210    4.4276    0.0000 H       1  UNL1        0.0601
     49 H           7.1225    3.7373    0.0000 H       1  UNL1        0.0601
     50 H           8.5991    4.9650    0.0000 H       1  UNL1        0.2098
@<TRIPOS>BOND
     1     1    13    1
     2     1    14    1
     3    14     2    1
     4     2    16    1
     5    10     3    1
     6     3    34    1
     7    11     4    1
     8     4    35    1
     9    12     5    1
    10     5    36    1
    11     6    15    1
    12     6    37    1
    13     7    17    1
    14     7    23    1
    15     8    18    1
    16     8    24    1
    17     9    26    1
    18     9    50    1
    19    10    11    1
    20    10    12    1
    21    10    27    1
    22    11    13    1
    23    11    28    1
    24    12    14    1
    25    12    29    1
    26    13    15    1
    27    13    30    1
    28    14    31    1
    29    15    32    1
    30    15    33    1
    31    16    17   ar
    32    16    18   ar
    33    17    19   ar
    34    18    20   ar
    35    19    21   ar
    36    19    38    1
    37    20    21   ar
    38    20    39    1
    39    21    22    1
    40    22    25    2
    41    22    40    1
    42    23    41    1
    43    23    42    1
    44    23    43    1
    45    24    44    1
    46    24    45    1
    47    24    46    1
    48    25    26    1
    49    25    47    1
    50    26    48    1
    51    26    49    1
