@<TRIPOS>MOLECULE
IMPHY011974
 20 20 0 0 0
SMALL
GASTEIGER

@<TRIPOS>ATOM
      1 O           2.8660   -3.1550    0.0000 O.3     1  UNL1       -0.5068
      2 O           4.5981    2.8450    0.0000 O.3     1  UNL1       -0.4775
      3 O           2.8660    2.8450    0.0000 O.2     1  UNL1       -0.2458
      4 C           2.8660   -0.1550    0.0000 C.ar    1  UNL1       -0.0246
      5 C           3.7320   -0.6550    0.0000 C.ar    1  UNL1       -0.0511
      6 C           2.0000   -0.6550    0.0000 C.ar    1  UNL1       -0.0511
      7 C           3.7320   -1.6550    0.0000 C.ar    1  UNL1       -0.0196
      8 C           2.0000   -1.6550    0.0000 C.ar    1  UNL1       -0.0196
      9 C           2.8660   -2.1550    0.0000 C.ar    1  UNL1        0.1169
     10 C           2.8660    0.8450    0.0000 C.2     1  UNL1       -0.0478
     11 C           3.7320    1.3450    0.0000 C.2     1  UNL1        0.0229
     12 C           3.7320    2.3450    0.0000 C.2     1  UNL1        0.3296
     13 H           4.2690   -0.3450    0.0000 H       1  UNL1        0.0625
     14 H           1.4631   -0.3450    0.0000 H       1  UNL1        0.0625
     15 H           4.2690   -1.9650    0.0000 H       1  UNL1        0.0654
     16 H           1.4631   -1.9650    0.0000 H       1  UNL1        0.0654
     17 H           2.3291    1.1550    0.0000 H       1  UNL1        0.0626
     18 H           4.2690    1.0350    0.0000 H       1  UNL1        0.0689
     19 H           2.3291   -3.4650    0.0000 H       1  UNL1        0.2921
     20 H           4.5981    3.4650    0.0000 H       1  UNL1        0.2954
@<TRIPOS>BOND
     1     1     9    1
     2     1    19    1
     3     2    12    1
     4     2    20    1
     5     3    12    2
     6     4     5   ar
     7     4     6   ar
     8     4    10    1
     9     5     7   ar
    10     5    13    1
    11     6     8   ar
    12     6    14    1
    13     7     9   ar
    14     7    15    1
    15     8     9   ar
    16     8    16    1
    17    10    11    2
    18    10    17    1
    19    11    12    1
    20    11    18    1
