@<TRIPOS>MOLECULE
IMPHY012740
 85 88 0 0 0
SMALL
GASTEIGER

@<TRIPOS>ATOM
      1 O           2.8660    0.3483    0.0000 O.3     1  UNL1       -0.4862
      2 O           3.7226   -0.1683    0.0000 O.2     1  UNL1       -0.2736
      3 O           6.9641   -0.0177    0.0000 O.2     1  UNL1       -0.2741
      4 O           3.7118   -3.1148    0.0000 O.2     1  UNL1       -0.2734
      5 N           5.4641    0.8484    0.0000 N.am    1  UNL1       -0.2997
      6 N           5.4641   -1.1516    0.0000 N.am    1  UNL1       -0.3021
      7 N           6.4641    2.5804    0.0000 N.3     1  UNL1       -0.2974
      8 N           4.5981   -3.6516    0.0000 N.am    1  UNL1       -0.2904
      9 N           8.7960    4.1553    0.0000 N.ar    1  UNL1       -0.3604
     10 C           3.7320    0.8483    0.0000 C.3     1  UNL1        0.1292
     11 C           4.5981    0.3483    0.0000 C.3     1  UNL1        0.1368
     12 C           3.7320    1.8484    0.0000 C.3     1  UNL1       -0.0073
     13 C           5.4641   -2.1516    0.0000 C.3     1  UNL1        0.1023
     14 C           6.3301   -2.6516    0.0000 C.3     1  UNL1       -0.0171
     15 C           4.5981   -0.6517    0.0000 C.2     1  UNL1        0.2376
     16 C           6.9641    1.7144    0.0000 C.3     1  UNL1        0.0908
     17 C           6.4641    0.8484    0.0000 C.2     1  UNL1        0.2312
     18 C           7.9641    1.7144    0.0000 C.3     1  UNL1       -0.0015
     19 C           2.8660    2.3484    0.0000 C.3     1  UNL1       -0.0592
     20 C           4.5981    2.3484    0.0000 C.3     1  UNL1       -0.0592
     21 C           7.1962   -2.1516    0.0000 C.3     1  UNL1       -0.0512
     22 C           6.3301   -3.6516    0.0000 C.3     1  UNL1       -0.0603
     23 C           8.4641    2.5804    0.0000 C.ar    1  UNL1       -0.0204
     24 C           4.5981   -2.6516    0.0000 C.2     1  UNL1        0.2374
     25 C           9.4528    2.6835    0.0000 C.ar    1  UNL1        0.0029
     26 C           2.8660   -0.6517    0.0000 C.ar    1  UNL1        0.1211
     27 C           8.0622   -2.6516    0.0000 C.3     1  UNL1       -0.0650
     28 C           8.0590    3.4882    0.0000 C.ar    1  UNL1        0.0060
     29 C           9.6590    3.6620    0.0000 C.ar    1  UNL1        0.0467
     30 C           6.9641    3.4464    0.0000 C.3     1  UNL1       -0.0123
     31 C           5.4641    2.5804    0.0000 C.3     1  UNL1       -0.0123
     32 C           3.7320   -1.1516    0.0000 C.ar    1  UNL1       -0.0194
     33 C           2.0000   -1.1516    0.0000 C.ar    1  UNL1       -0.0194
     34 C          10.1971    2.0156    0.0000 C.ar    1  UNL1       -0.0523
     35 C          10.6096    3.9726    0.0000 C.ar    1  UNL1       -0.0378
     36 C           2.8660   -2.6516    0.0000 C.ar    1  UNL1       -0.0236
     37 C           3.7320   -4.1516    0.0000 C.2     1  UNL1       -0.0031
     38 C           3.7320   -2.1516    0.0000 C.ar    1  UNL1       -0.0511
     39 C           2.0000   -2.1516    0.0000 C.ar    1  UNL1       -0.0511
     40 C          11.1476    2.3263    0.0000 C.ar    1  UNL1       -0.0611
     41 C           2.8660   -3.6516    0.0000 C.2     1  UNL1       -0.0407
     42 C          11.3539    3.3048    0.0000 C.ar    1  UNL1       -0.0598
     43 H           3.1951    1.1584    0.0000 H       1  UNL1        0.0759
     44 H           5.1350    0.0383    0.0000 H       1  UNL1        0.0632
     45 H           4.2690    1.5384    0.0000 H       1  UNL1        0.0332
     46 H           6.2002   -1.7266    0.0000 H       1  UNL1        0.0597
     47 H           6.8671   -2.9616    0.0000 H       1  UNL1        0.0321
     48 H           6.3441    1.7144    0.0000 H       1  UNL1        0.0562
     49 H           5.4641    1.4684    0.0000 H       1  UNL1        0.1496
     50 H           6.0841   -1.1516    0.0000 H       1  UNL1        0.1495
     51 H           7.8564    1.1038    0.0000 H       1  UNL1        0.0334
     52 H           8.5467    1.5023    0.0000 H       1  UNL1        0.0334
     53 H           3.1760    2.8853    0.0000 H       1  UNL1        0.0233
     54 H           2.3291    2.6583    0.0000 H       1  UNL1        0.0233
     55 H           2.5560    1.8114    0.0000 H       1  UNL1        0.0233
     56 H           4.9081    1.8114    0.0000 H       1  UNL1        0.0233
     57 H           5.1350    2.6584    0.0000 H       1  UNL1        0.0233
     58 H           4.2881    2.8853    0.0000 H       1  UNL1        0.0233
     59 H           7.5947   -1.6767    0.0000 H       1  UNL1        0.0266
     60 H           6.7976   -1.6767    0.0000 H       1  UNL1        0.0266
     61 H           5.7101   -3.6516    0.0000 H       1  UNL1        0.0233
     62 H           6.3301   -4.2716    0.0000 H       1  UNL1        0.0233
     63 H           6.9501   -3.6516    0.0000 H       1  UNL1        0.0233
     64 H           7.7522   -3.1886    0.0000 H       1  UNL1        0.0230
     65 H           8.5991   -2.9616    0.0000 H       1  UNL1        0.0230
     66 H           8.3722   -2.1147    0.0000 H       1  UNL1        0.0230
     67 H           7.4523    3.6160    0.0000 H       1  UNL1        0.0810
     68 H           7.5010    3.1364    0.0000 H       1  UNL1        0.0391
     69 H           7.2741    3.9834    0.0000 H       1  UNL1        0.0391
     70 H           6.4272    3.7564    0.0000 H       1  UNL1        0.0391
     71 H           5.4641    3.2004    0.0000 H       1  UNL1        0.0391
     72 H           4.8441    2.5804    0.0000 H       1  UNL1        0.0391
     73 H           5.4641    1.9604    0.0000 H       1  UNL1        0.0391
     74 H           5.1350   -3.9616    0.0000 H       1  UNL1        0.1543
     75 H           8.7291    4.7716    0.0000 H       1  UNL1        0.1653
     76 H           4.2690   -0.8416    0.0000 H       1  UNL1        0.0654
     77 H           1.4631   -0.8417    0.0000 H       1  UNL1        0.0654
     78 H          10.0693    1.4089    0.0000 H       1  UNL1        0.0624
     79 H          10.7374    4.5793    0.0000 H       1  UNL1        0.0638
     80 H           3.7320   -4.7716    0.0000 H       1  UNL1        0.0782
     81 H           4.2690   -2.4616    0.0000 H       1  UNL1        0.0625
     82 H           1.4631   -2.4616    0.0000 H       1  UNL1        0.0625
     83 H          11.6091    1.9122    0.0000 H       1  UNL1        0.0618
     84 H           2.3291   -3.9616    0.0000 H       1  UNL1        0.0636
     85 H          11.9432    3.4974    0.0000 H       1  UNL1        0.0618
@<TRIPOS>BOND
     1     1    10    1
     2     1    26    1
     3     2    15    2
     4     3    17    2
     5     4    24    2
     6    11     5    1
     7     5    17   am
     8     5    49    1
     9     6    13    1
    10     6    15   am
    11     6    50    1
    12    16     7    1
    13     7    30    1
    14     7    31    1
    15     8    24   am
    16     8    37    1
    17     8    74    1
    18     9    28   ar
    19     9    29   ar
    20     9    75    1
    21    10    11    1
    22    10    12    1
    23    10    43    1
    24    11    15    1
    25    11    44    1
    26    12    19    1
    27    12    20    1
    28    12    45    1
    29    13    14    1
    30    13    24    1
    31    13    46    1
    32    14    21    1
    33    14    22    1
    34    14    47    1
    35    16    17    1
    36    16    18    1
    37    16    48    1
    38    18    23    1
    39    18    51    1
    40    18    52    1
    41    19    53    1
    42    19    54    1
    43    19    55    1
    44    20    56    1
    45    20    57    1
    46    20    58    1
    47    21    27    1
    48    21    59    1
    49    21    60    1
    50    22    61    1
    51    22    62    1
    52    22    63    1
    53    23    25   ar
    54    23    28   ar
    55    25    29   ar
    56    25    34   ar
    57    26    32   ar
    58    26    33   ar
    59    27    64    1
    60    27    65    1
    61    27    66    1
    62    28    67    1
    63    29    35   ar
    64    30    68    1
    65    30    69    1
    66    30    70    1
    67    31    71    1
    68    31    72    1
    69    31    73    1
    70    32    38   ar
    71    32    76    1
    72    33    39   ar
    73    33    77    1
    74    34    40   ar
    75    34    78    1
    76    35    42   ar
    77    35    79    1
    78    36    38   ar
    79    36    39   ar
    80    36    41    1
    81    37    41    2
    82    37    80    1
    83    38    81    1
    84    39    82    1
    85    40    42   ar
    86    40    83    1
    87    41    84    1
    88    42    85    1
