@<TRIPOS>MOLECULE
IMPHY006852
 54 58 0 0 0
SMALL
GASTEIGER

@<TRIPOS>ATOM
      1 O           6.1015   -0.5741    0.0000 O.3     1  UNL1       -0.3547
      2 O           5.4634    1.2156    0.0000 O.3     1  UNL1       -0.4636
      3 O           2.5405    0.5532    0.0000 O.3     1  UNL1       -0.3915
      4 O           8.2497   -0.6343    0.0000 O.3     1  UNL1       -0.4625
      5 O           4.5247    2.5192    0.0000 O.2     1  UNL1       -0.2502
      6 O           6.8519    0.4710    0.0000 O.2     1  UNL1       -0.2476
      7 C           5.1767    0.0501    0.0000 C.3     1  UNL1        0.0403
      8 C           5.1928   -0.9914    0.0000 C.3     1  UNL1        0.0827
      9 C           4.3107    0.5501    0.0000 C.3     1  UNL1        0.0119
     10 C           4.3107    1.5501    0.0000 C.3     1  UNL1        0.0708
     11 C           4.2947   -1.5192    0.0000 C.3     1  UNL1       -0.0117
     12 C           6.0427    0.5501    0.0000 C.3     1  UNL1       -0.0412
     13 C           3.4007    0.0432    0.0000 C.3     1  UNL1        0.0601
     14 C           5.3088   -1.9847    0.0000 C.3     1  UNL1       -0.0197
     15 C           5.3798    0.4200    0.0000 C.3     1  UNL1        0.1011
     16 C           3.3926   -0.9984    0.0000 C.3     1  UNL1       -0.0213
     17 C           5.1767    2.0501    0.0000 C.3     1  UNL1       -0.0371
     18 C           6.0427    1.5501    0.0000 C.3     1  UNL1       -0.0513
     19 C           6.7792   -1.3095    0.0000 C.3     1  UNL1        0.1693
     20 C           6.2893   -2.1812    0.0000 C.3     1  UNL1       -0.0105
     21 C           4.7326    1.5410    0.0000 C.2     1  UNL1        0.3134
     22 C           3.8107    2.4161    0.0000 C.3     1  UNL1       -0.0490
     23 C           4.2986   -2.5192    0.0000 C.3     1  UNL1       -0.0597
     24 C           7.4569   -2.0449    0.0000 C.3     1  UNL1        0.0212
     25 C           7.2692   -0.4378    0.0000 C.2     1  UNL1        0.3396
     26 C           8.3657   -1.6276    0.0000 C.3     1  UNL1        0.0957
     27 H           3.5746    0.9751    0.0000 H       1  UNL1        0.0344
     28 H           4.8334   -1.8261    0.0000 H       1  UNL1        0.0327
     29 H           6.2548   -0.0325    0.0000 H       1  UNL1        0.0273
     30 H           6.6533    0.6578    0.0000 H       1  UNL1        0.0273
     31 H           2.8608   -0.2616    0.0000 H       1  UNL1        0.0596
     32 H           4.6888   -1.9918    0.0000 H       1  UNL1        0.0294
     33 H           5.2511   -2.6020    0.0000 H       1  UNL1        0.0294
     34 H           5.7685   -0.0630    0.0000 H       1  UNL1        0.0704
     35 H           4.7881    0.6052    0.0000 H       1  UNL1        0.0704
     36 H           2.7826   -0.8876    0.0000 H       1  UNL1        0.0294
     37 H           3.1791   -1.5804    0.0000 H       1  UNL1        0.0294
     38 H           5.5752    2.5250    0.0000 H       1  UNL1        0.0276
     39 H           4.7782    2.5250    0.0000 H       1  UNL1        0.0276
     40 H           6.6533    1.4424    0.0000 H       1  UNL1        0.0266
     41 H           6.2548    2.1327    0.0000 H       1  UNL1        0.0266
     42 H           6.1045   -2.7731    0.0000 H       1  UNL1        0.0299
     43 H           6.8585   -2.4269    0.0000 H       1  UNL1        0.0299
     44 H           4.3476    2.7261    0.0000 H       1  UNL1        0.0240
     45 H           3.5007    2.9530    0.0000 H       1  UNL1        0.0240
     46 H           3.2737    2.1061    0.0000 H       1  UNL1        0.0240
     47 H           3.6786   -2.5216    0.0000 H       1  UNL1        0.0233
     48 H           4.3010   -3.1392    0.0000 H       1  UNL1        0.0233
     49 H           4.9186   -2.5168    0.0000 H       1  UNL1        0.0233
     50 H           6.9596   -2.4151    0.0000 H       1  UNL1        0.0331
     51 H           7.7731   -2.5782    0.0000 H       1  UNL1        0.0331
     52 H           2.0000    0.2495    0.0000 H       1  UNL1        0.2098
     53 H           8.5641   -2.2150    0.0000 H       1  UNL1        0.0698
     54 H           8.9706   -1.4917    0.0000 H       1  UNL1        0.0698
@<TRIPOS>BOND
     1     8     1    1
     2     1    19    1
     3     2    15    1
     4     2    21    1
     5    13     3    1
     6     3    52    1
     7     4    25    1
     8     4    26    1
     9     5    21    2
    10     6    25    2
    11     7     8    1
    12     7     9    1
    13     7    12    1
    14     7    15    1
    15     8    11    1
    16     8    14    1
    17     9    10    1
    18     9    13    1
    19     9    27    1
    20    10    17    1
    21    10    21    1
    22    10    22    1
    23    11    16    1
    24    11    23    1
    25    11    28    1
    26    12    18    1
    27    12    29    1
    28    12    30    1
    29    13    16    1
    30    13    31    1
    31    14    20    1
    32    14    32    1
    33    14    33    1
    34    15    34    1
    35    15    35    1
    36    16    36    1
    37    16    37    1
    38    17    18    1
    39    17    38    1
    40    17    39    1
    41    18    40    1
    42    18    41    1
    43    19    20    1
    44    19    24    1
    45    19    25    1
    46    20    42    1
    47    20    43    1
    48    22    44    1
    49    22    45    1
    50    22    46    1
    51    23    47    1
    52    23    48    1
    53    23    49    1
    54    24    26    1
    55    24    50    1
    56    24    51    1
    57    26    53    1
    58    26    54    1
