@<TRIPOS>MOLECULE
IMPHY016666
 35 36 0 0 0
SMALL
GASTEIGER

@<TRIPOS>ATOM
      1 C           3.4088    1.1235    0.0000 C.3     1  UNL1       -0.0062
      2 C           4.1906    0.5000    0.0000 C.ar    1  UNL1       -0.0375
      3 C           2.4339    0.9010    0.0000 C.3     1  UNL1       -0.0256
      4 C           4.1906   -0.5000    0.0000 C.ar    1  UNL1       -0.0371
      5 C           3.4088   -1.1235    0.0000 C.3     1  UNL1       -0.0004
      6 C           3.1863    2.0984    0.0000 C.3     1  UNL1       -0.0555
      7 C           4.0323    1.9053    0.0000 C.3     1  UNL1       -0.0555
      8 C           2.0000   -0.0000    0.0000 C.2     1  UNL1       -0.0866
      9 C           2.4339   -0.9010    0.0000 C.2     1  UNL1       -0.0807
     10 C           5.0846    1.0347    0.0000 C.ar    1  UNL1       -0.0549
     11 C           5.0846   -1.0347    0.0000 C.ar    1  UNL1       -0.0575
     12 C           3.6313   -2.0984    0.0000 C.3     1  UNL1       -0.0549
     13 C           5.9906    0.5208    0.0000 C.ar    1  UNL1       -0.0502
     14 C           5.9906   -0.5208    0.0000 C.ar    1  UNL1       -0.0585
     15 C           6.8547    1.0241    0.0000 C.3     1  UNL1       -0.0397
     16 H           2.4339    1.5210    0.0000 H       1  UNL1        0.0316
     17 H           1.8294    1.0389    0.0000 H       1  UNL1        0.0316
     18 H           2.9704   -1.5619    0.0000 H       1  UNL1        0.0389
     19 H           3.7908    2.2364    0.0000 H       1  UNL1        0.0238
     20 H           3.0483    2.7029    0.0000 H       1  UNL1        0.0238
     21 H           2.5818    1.9604    0.0000 H       1  UNL1        0.0238
     22 H           4.5170    1.5188    0.0000 H       1  UNL1        0.0238
     23 H           4.4189    2.3901    0.0000 H       1  UNL1        0.0238
     24 H           3.5476    2.2919    0.0000 H       1  UNL1        0.0238
     25 H           1.3800   -0.0000    0.0000 H       1  UNL1        0.0569
     26 H           2.0473   -1.3857    0.0000 H       1  UNL1        0.0575
     27 H           5.0774    1.6546    0.0000 H       1  UNL1        0.0623
     28 H           5.0774   -1.6546    0.0000 H       1  UNL1        0.0621
     29 H           3.0269   -2.2364    0.0000 H       1  UNL1        0.0239
     30 H           3.7693   -2.7029    0.0000 H       1  UNL1        0.0239
     31 H           4.2358   -1.9604    0.0000 H       1  UNL1        0.0239
     32 H           6.5264   -0.8329    0.0000 H       1  UNL1        0.0620
     33 H           7.1668    0.4884    0.0000 H       1  UNL1        0.0278
     34 H           7.3905    1.3362    0.0000 H       1  UNL1        0.0278
     35 H           6.5427    1.5599    0.0000 H       1  UNL1        0.0278
@<TRIPOS>BOND
     1     1     2    1
     2     1     3    1
     3     1     6    1
     4     1     7    1
     5     2     4   ar
     6     2    10   ar
     7     3     8    1
     8     3    16    1
     9     3    17    1
    10     4     5    1
    11     4    11   ar
    12     5     9    1
    13     5    12    1
    14     5    18    1
    15     6    19    1
    16     6    20    1
    17     6    21    1
    18     7    22    1
    19     7    23    1
    20     7    24    1
    21     8     9    2
    22     8    25    1
    23     9    26    1
    24    10    13   ar
    25    10    27    1
    26    11    14   ar
    27    11    28    1
    28    12    29    1
    29    12    30    1
    30    12    31    1
    31    13    14   ar
    32    13    15    1
    33    14    32    1
    34    15    33    1
    35    15    34    1
    36    15    35    1
