@<TRIPOS>MOLECULE
IMPHY002526
 31 33 0 0 0
SMALL
GASTEIGER

@<TRIPOS>ATOM
      1 O           4.6660   -0.7500    0.0000 O.2     1  UNL1       -0.4509
      2 O           6.3981    1.2500    0.0000 O.3     1  UNL1       -0.4883
      3 O           4.6660    2.2500    0.0000 O.2     1  UNL1       -0.2831
      4 C           3.8000    0.7500    0.0000 C.ar    1  UNL1        0.0677
      5 C           5.5321   -0.2500    0.0000 C.ar    1  UNL1        0.1808
      6 C           3.8000   -0.2500    0.0000 C.ar    1  UNL1        0.1395
      7 C           5.5321    0.7500    0.0000 C.ar    1  UNL1        0.2105
      8 C           6.3981   -0.7500    0.0000 C.ar    1  UNL1        0.0211
      9 C           4.6660    1.2500    0.0000 C.ar    1  UNL1        0.2345
     10 C           2.9061    1.2847    0.0000 C.ar    1  UNL1       -0.0473
     11 C           2.9061   -0.7847    0.0000 C.ar    1  UNL1       -0.0186
     12 C           6.3981   -1.7500    0.0000 C.ar    1  UNL1       -0.0510
     13 C           7.2641   -0.2500    0.0000 C.ar    1  UNL1       -0.0510
     14 C           2.0000    0.7708    0.0000 C.ar    1  UNL1       -0.0609
     15 C           2.0000   -0.2708    0.0000 C.ar    1  UNL1       -0.0582
     16 C           7.2641   -2.2500    0.0000 C.ar    1  UNL1       -0.0611
     17 C           8.1301   -0.7500    0.0000 C.ar    1  UNL1       -0.0611
     18 C           8.1301   -1.7500    0.0000 C.ar    1  UNL1       -0.0617
     19 C           6.3981    2.2500    0.0000 C.3     1  UNL1        0.0791
     20 H           2.9132    1.9046    0.0000 H       1  UNL1        0.0626
     21 H           2.9132   -1.4046    0.0000 H       1  UNL1        0.0654
     22 H           5.8612   -2.0600    0.0000 H       1  UNL1        0.0625
     23 H           7.2641    0.3700    0.0000 H       1  UNL1        0.0625
     24 H           1.4643    1.0829    0.0000 H       1  UNL1        0.0618
     25 H           1.4643   -0.5829    0.0000 H       1  UNL1        0.0619
     26 H           7.2641   -2.8700    0.0000 H       1  UNL1        0.0618
     27 H           8.6671   -0.4400    0.0000 H       1  UNL1        0.0618
     28 H           8.6671   -2.0600    0.0000 H       1  UNL1        0.0618
     29 H           7.0181    2.2500    0.0000 H       1  UNL1        0.0660
     30 H           6.3981    2.8700    0.0000 H       1  UNL1        0.0660
     31 H           5.7781    2.2500    0.0000 H       1  UNL1        0.0660
@<TRIPOS>BOND
     1     1     5   ar
     2     1     6   ar
     3     2     7    1
     4     2    19    1
     5     3     9    2
     6     4     6   ar
     7     4     9   ar
     8     4    10   ar
     9     5     7   ar
    10     5     8    1
    11     6    11   ar
    12     7     9   ar
    13     8    12   ar
    14     8    13   ar
    15    10    14   ar
    16    10    20    1
    17    11    15   ar
    18    11    21    1
    19    12    16   ar
    20    12    22    1
    21    13    17   ar
    22    13    23    1
    23    14    15   ar
    24    14    24    1
    25    15    25    1
    26    16    18   ar
    27    16    26    1
    28    17    18   ar
    29    17    27    1
    30    18    28    1
    31    19    29    1
    32    19    30    1
    33    19    31    1
