@<TRIPOS>MOLECULE
IMPHY009249
 56 59 0 0 0
SMALL
GASTEIGER

@<TRIPOS>ATOM
      1 O          10.4897   -3.3138    0.0000 O.3     1  UNL1       -0.3950
      2 O           2.9339    2.4949    0.0000 O.3     1  UNL1       -0.4914
      3 O           2.3045    0.5522    0.0000 O.3     1  UNL1       -0.4914
      4 N           8.2470    0.7654    0.0000 N.3     1  UNL1       -0.2934
      5 N           5.7940   -0.3521    0.0000 N.ar    1  UNL1       -0.3564
      6 C           8.9017   -1.1977    0.0000 C.3     1  UNL1       -0.0332
      7 C           7.5779    0.0223    0.0000 C.3     1  UNL1        0.0512
      8 C           9.5986   -0.4236    0.0000 C.3     1  UNL1       -0.0255
      9 C           7.8845   -0.9732    0.0000 C.3     1  UNL1       -0.0286
     10 C           9.2691    0.5646    0.0000 C.3     1  UNL1        0.0026
     11 C           6.5998    0.2302    0.0000 C.ar    1  UNL1        0.0376
     12 C           7.9380    1.7164    0.0000 C.3     1  UNL1        0.0036
     13 C           9.2070   -2.1499    0.0000 C.3     1  UNL1       -0.0265
     14 C          10.5776   -0.6277    0.0000 C.3     1  UNL1       -0.0516
     15 C           6.2908    1.1812    0.0000 C.ar    1  UNL1       -0.0163
     16 C           6.9599    1.9244    0.0000 C.3     1  UNL1       -0.0125
     17 C           5.2967    1.1786    0.0000 C.ar    1  UNL1        0.0069
     18 C           4.9903    0.2329    0.0000 C.ar    1  UNL1        0.0507
     19 C          10.1843   -2.3616    0.0000 C.3     1  UNL1        0.0445
     20 C          11.2438    0.1180    0.0000 C.3     1  UNL1       -0.0650
     21 C           4.6151    1.9581    0.0000 C.ar    1  UNL1       -0.0069
     22 C           3.9811    0.0012    0.0000 C.ar    1  UNL1        0.0076
     23 C           3.6008    1.7498    0.0000 C.ar    1  UNL1        0.1622
     24 C           3.2817    0.7647    0.0000 C.ar    1  UNL1        0.1635
     25 C           3.2458    3.4451    0.0000 C.3     1  UNL1        0.0790
     26 C           2.0000   -0.4003    0.0000 C.3     1  UNL1        0.0790
     27 H           8.4841   -1.6560    0.0000 H       1  UNL1        0.0305
     28 H           7.0043   -0.6050    0.0000 H       1  UNL1        0.0527
     29 H           9.7914   -1.0129    0.0000 H       1  UNL1        0.0316
     30 H           7.2695   -1.0516    0.0000 H       1  UNL1        0.0287
     31 H           7.8565   -1.5926    0.0000 H       1  UNL1        0.0287
     32 H           9.8822    0.6572    0.0000 H       1  UNL1        0.0429
     33 H           9.2828    1.1844    0.0000 H       1  UNL1        0.0429
     34 H           8.5520    1.8027    0.0000 H       1  UNL1        0.0430
     35 H           7.9597    2.3361    0.0000 H       1  UNL1        0.0430
     36 H           8.5927   -2.2338    0.0000 H       1  UNL1        0.0290
     37 H           9.1830   -2.7694    0.0000 H       1  UNL1        0.0290
     38 H          10.3475   -1.2035    0.0000 H       1  UNL1        0.0266
     39 H          11.1046   -0.9542    0.0000 H       1  UNL1        0.0266
     40 H           7.1921    2.4992    0.0000 H       1  UNL1        0.0326
     41 H           6.4341    2.2529    0.0000 H       1  UNL1        0.0326
     42 H           5.7930   -0.9721    0.0000 H       1  UNL1        0.1656
     43 H          10.7986   -2.2777    0.0000 H       1  UNL1        0.0557
     44 H          10.2084   -1.7420    0.0000 H       1  UNL1        0.0557
     45 H          11.7062   -0.2951    0.0000 H       1  UNL1        0.0230
     46 H          11.6569    0.5803    0.0000 H       1  UNL1        0.0230
     47 H          10.7815    0.5311    0.0000 H       1  UNL1        0.0230
     48 H           4.8130    2.5457    0.0000 H       1  UNL1        0.0662
     49 H           3.7969   -0.5908    0.0000 H       1  UNL1        0.0676
     50 H          11.0956   -3.4451    0.0000 H       1  UNL1        0.2094
     51 H           3.8348    3.2517    0.0000 H       1  UNL1        0.0660
     52 H           3.4391    4.0341    0.0000 H       1  UNL1        0.0660
     53 H           2.6567    3.6384    0.0000 H       1  UNL1        0.0660
     54 H           1.4095   -0.2115    0.0000 H       1  UNL1        0.0660
     55 H           1.8112   -0.9909    0.0000 H       1  UNL1        0.0660
     56 H           2.5906   -0.5891    0.0000 H       1  UNL1        0.0660
@<TRIPOS>BOND
     1     1    19    1
     2     1    50    1
     3     2    23    1
     4     2    25    1
     5     3    24    1
     6     3    26    1
     7     4     7    1
     8     4    10    1
     9     4    12    1
    10     5    11   ar
    11     5    18   ar
    12     5    42    1
    13     6     8    1
    14     6     9    1
    15     6    13    1
    16     6    27    1
    17     7     9    1
    18     7    11    1
    19     7    28    1
    20     8    10    1
    21     8    14    1
    22     8    29    1
    23     9    30    1
    24     9    31    1
    25    10    32    1
    26    10    33    1
    27    11    15   ar
    28    12    16    1
    29    12    34    1
    30    12    35    1
    31    13    19    1
    32    13    36    1
    33    13    37    1
    34    14    20    1
    35    14    38    1
    36    14    39    1
    37    15    16    1
    38    15    17   ar
    39    16    40    1
    40    16    41    1
    41    17    18   ar
    42    17    21   ar
    43    18    22   ar
    44    19    43    1
    45    19    44    1
    46    20    45    1
    47    20    46    1
    48    20    47    1
    49    21    23   ar
    50    21    48    1
    51    22    24   ar
    52    22    49    1
    53    23    24   ar
    54    25    51    1
    55    25    52    1
    56    25    53    1
    57    26    54    1
    58    26    55    1
    59    26    56    1
