@<TRIPOS>MOLECULE
IMPHY012234
 42 46 0 0 0
SMALL
GASTEIGER

@<TRIPOS>ATOM
      1 O           7.2192   -0.1905    0.0000 O.3     1  UNL1       -0.4830
      2 O           7.4284    2.7813    0.0000 O.3     1  UNL1       -0.4907
      3 O           3.9852   -1.9245    0.0000 O.3     1  UNL1       -0.4815
      4 O          10.9585    2.8054    0.0000 O.3     1  UNL1       -0.5066
      5 C           6.5624    1.2813    0.0000 C.3     1  UNL1        0.0630
      6 C           7.4284    0.7813    0.0000 C.3     1  UNL1        0.1385
      7 C           5.8254    0.6142    0.0000 C.ar    1  UNL1        0.0053
      8 C           6.5624    2.2813    0.0000 C.3     1  UNL1        0.1002
      9 C           6.2305   -0.2936    0.0000 C.ar    1  UNL1        0.1286
     10 C           8.2944    1.2813    0.0000 C.ar    1  UNL1        0.0352
     11 C           4.7972    0.7374    0.0000 C.ar    1  UNL1       -0.0439
     12 C           8.2944    2.2813    0.0000 C.ar    1  UNL1        0.1307
     13 C           4.1829   -0.0961    0.0000 C.ar    1  UNL1        0.0170
     14 C           5.6356   -1.1411    0.0000 C.ar    1  UNL1        0.0227
     15 C           4.6049   -1.0417    0.0000 C.ar    1  UNL1        0.1323
     16 C           2.9116   -1.8209    0.0000 C.3     1  UNL1        0.1235
     17 C           9.1884    0.7466    0.0000 C.ar    1  UNL1       -0.0481
     18 C           3.1120    0.0322    0.0000 C.2     1  UNL1       -0.0513
     19 C           2.4721   -0.8360    0.0000 C.2     1  UNL1       -0.0409
     20 C           9.1884    2.8160    0.0000 C.ar    1  UNL1        0.0219
     21 C          10.0944    1.2605    0.0000 C.ar    1  UNL1       -0.0196
     22 C           2.0000   -2.2320    0.0000 C.3     1  UNL1       -0.0215
     23 C           2.8118   -2.8160    0.0000 C.3     1  UNL1       -0.0215
     24 C          10.0944    2.3021    0.0000 C.ar    1  UNL1        0.1204
     25 H           5.9957    1.5327    0.0000 H       1  UNL1        0.0423
     26 H           7.9295    0.4162    0.0000 H       1  UNL1        0.0793
     27 H           6.3503    2.8639    0.0000 H       1  UNL1        0.0704
     28 H           5.9518    2.1736    0.0000 H       1  UNL1        0.0704
     29 H           4.5512    1.3065    0.0000 H       1  UNL1        0.0629
     30 H           5.8948   -1.7043    0.0000 H       1  UNL1        0.0691
     31 H           9.1812    0.1267    0.0000 H       1  UNL1        0.0624
     32 H           2.8659    0.6013    0.0000 H       1  UNL1        0.0623
     33 H           1.8557   -0.7693    0.0000 H       1  UNL1        0.0611
     34 H           9.1812    3.4359    0.0000 H       1  UNL1        0.0691
     35 H          10.6302    0.9484    0.0000 H       1  UNL1        0.0654
     36 H           1.7452   -1.6668    0.0000 H       1  UNL1        0.0271
     37 H           1.4348   -2.4868    0.0000 H       1  UNL1        0.0271
     38 H           2.2548   -2.7972    0.0000 H       1  UNL1        0.0271
     39 H           2.1949   -2.7540    0.0000 H       1  UNL1        0.0271
     40 H           2.7499   -3.4328    0.0000 H       1  UNL1        0.0271
     41 H           3.4287   -2.8778    0.0000 H       1  UNL1        0.0271
     42 H          11.4967    2.4975    0.0000 H       1  UNL1        0.2921
@<TRIPOS>BOND
     1     1     6    1
     2     1     9    1
     3     2     8    1
     4     2    12    1
     5     3    15    1
     6     3    16    1
     7     4    24    1
     8     4    42    1
     9     5     6    1
    10     5     7    1
    11     5     8    1
    12     5    25    1
    13     6    10    1
    14     6    26    1
    15     7     9   ar
    16     7    11   ar
    17     8    27    1
    18     8    28    1
    19     9    14   ar
    20    10    12   ar
    21    10    17   ar
    22    11    13   ar
    23    11    29    1
    24    12    20   ar
    25    13    15   ar
    26    13    18    1
    27    14    15   ar
    28    14    30    1
    29    16    19    1
    30    16    22    1
    31    16    23    1
    32    17    21   ar
    33    17    31    1
    34    18    19    2
    35    18    32    1
    36    19    33    1
    37    20    24   ar
    38    20    34    1
    39    21    24   ar
    40    21    35    1
    41    22    36    1
    42    22    37    1
    43    22    38    1
    44    23    39    1
    45    23    40    1
    46    23    41    1
