@<TRIPOS>MOLECULE
IMPHY001587
 36 39 0 0 0
SMALL
GASTEIGER

@<TRIPOS>ATOM
      1 O           2.8602    2.9680    0.0000 O.3     1  UNL1       -0.4802
      2 O           2.0000    1.4646    0.0000 O.2     1  UNL1       -0.2503
      3 N           5.5322    1.4644    0.0000 N.3     1  UNL1       -0.2970
      4 N           6.5202   -2.7258    0.0000 N.ar    1  UNL1       -0.3604
      5 C           5.5161    0.4229    0.0000 C.3     1  UNL1        0.0397
      6 C           4.6501   -0.0771    0.0000 C.2     1  UNL1       -0.0253
      7 C           6.3821   -0.0771    0.0000 C.3     1  UNL1       -0.0059
      8 C           4.6341    1.9921    0.0000 C.3     1  UNL1        0.0156
      9 C           6.3821   -1.0771    0.0000 C.ar    1  UNL1       -0.0200
     10 C           3.7320    1.4713    0.0000 C.3     1  UNL1        0.0876
     11 C           4.6501   -1.0771    0.0000 C.ar    1  UNL1       -0.0112
     12 C           5.5161   -1.5771    0.0000 C.ar    1  UNL1        0.0103
     13 C           3.7401    0.4297    0.0000 C.2     1  UNL1       -0.0639
     14 C           5.5322   -2.6186    0.0000 C.ar    1  UNL1        0.0473
     15 C           6.4039    1.9543    0.0000 C.3     1  UNL1       -0.0121
     16 C           7.0000   -1.8555    0.0000 C.ar    1  UNL1        0.0060
     17 C           3.7401   -1.5840    0.0000 C.ar    1  UNL1       -0.0536
     18 C           2.8641    1.9680    0.0000 C.2     1  UNL1        0.3129
     19 C           4.6341   -3.1464    0.0000 C.ar    1  UNL1       -0.0378
     20 C           3.7320   -2.6256    0.0000 C.ar    1  UNL1       -0.0592
     21 H           6.2555    0.8422    0.0000 H       1  UNL1        0.0515
     22 H           6.9927   -0.1848    0.0000 H       1  UNL1        0.0332
     23 H           6.5942    0.5055    0.0000 H       1  UNL1        0.0332
     24 H           5.0351    2.4650    0.0000 H       1  UNL1        0.0438
     25 H           4.2368    2.4681    0.0000 H       1  UNL1        0.0438
     26 H           3.7308    2.0913    0.0000 H       1  UNL1        0.0469
     27 H           3.2068    0.1135    0.0000 H       1  UNL1        0.0584
     28 H           6.7077    1.4138    0.0000 H       1  UNL1        0.0391
     29 H           6.9444    2.2581    0.0000 H       1  UNL1        0.0391
     30 H           6.1001    2.4948    0.0000 H       1  UNL1        0.0391
     31 H           7.6179   -1.8038    0.0000 H       1  UNL1        0.0810
     32 H           3.2068   -1.2678    0.0000 H       1  UNL1        0.0624
     33 H           6.8062   -3.2759    0.0000 H       1  UNL1        0.1653
     34 H           4.6365   -3.7664    0.0000 H       1  UNL1        0.0638
     35 H           3.1939   -2.9335    0.0000 H       1  UNL1        0.0618
     36 H           2.3221    3.2759    0.0000 H       1  UNL1        0.2951
@<TRIPOS>BOND
     1     1    18    1
     2     1    36    1
     3     2    18    2
     4     3     5    1
     5     3     8    1
     6     3    15    1
     7     4    14   ar
     8     4    16   ar
     9     4    33    1
    10     5     6    1
    11     5     7    1
    12     5    21    1
    13     6    11    1
    14     6    13    2
    15     7     9    1
    16     7    22    1
    17     7    23    1
    18     8    10    1
    19     8    24    1
    20     8    25    1
    21     9    12   ar
    22     9    16   ar
    23    10    13    1
    24    10    18    1
    25    10    26    1
    26    11    12   ar
    27    11    17   ar
    28    12    14   ar
    29    13    27    1
    30    14    19   ar
    31    15    28    1
    32    15    29    1
    33    15    30    1
    34    16    31    1
    35    17    20   ar
    36    17    32    1
    37    19    20   ar
    38    19    34    1
    39    20    35    1
