@<TRIPOS>MOLECULE
IMPHY006090
 42 45 0 0 0
SMALL
GASTEIGER

@<TRIPOS>ATOM
      1 O           8.8755   -0.8784    0.0000 O.3     1  UNL1       -0.4832
      2 O          10.3984    2.0935    0.0000 O.3     1  UNL1       -0.5064
      3 O           6.0682   -1.4065    0.0000 O.2     1  UNL1       -0.4618
      4 O           6.0682    1.5935    0.0000 O.2     1  UNL1       -0.2863
      5 O           4.3198    1.6281    0.0000 O.3     1  UNL1       -0.5058
      6 O           2.5381   -1.4307    0.0000 O.3     1  UNL1       -0.5065
      7 C           9.8643   -0.9814    0.0000 C.3     1  UNL1        0.1250
      8 C          10.2694   -0.0736    0.0000 C.3     1  UNL1        0.0204
      9 C           9.5323    0.5935    0.0000 C.ar    1  UNL1        0.0400
     10 C           8.6663    0.0935    0.0000 C.ar    1  UNL1        0.1360
     11 C           7.8003    0.5935    0.0000 C.ar    1  UNL1        0.0309
     12 C          10.3643   -1.8474    0.0000 C.2     1  UNL1       -0.0395
     13 C           9.5323    1.5935    0.0000 C.ar    1  UNL1        0.1237
     14 C           6.9343    0.0935    0.0000 C.ar    1  UNL1        0.0679
     15 C           7.8003    1.5935    0.0000 C.ar    1  UNL1       -0.0469
     16 C           8.6663    2.0935    0.0000 C.ar    1  UNL1       -0.0191
     17 C           6.0682    0.5935    0.0000 C.ar    1  UNL1        0.2038
     18 C          11.3643   -1.8474    0.0000 C.3     1  UNL1       -0.0406
     19 C           5.2022    0.0935    0.0000 C.ar    1  UNL1        0.1060
     20 C           6.9343   -0.9065    0.0000 C.ar    1  UNL1        0.1040
     21 C           9.8643   -2.7135    0.0000 C.2     1  UNL1       -0.0962
     22 C           5.2022   -0.9065    0.0000 C.ar    1  UNL1        0.1454
     23 C           4.3083    0.6281    0.0000 C.ar    1  UNL1        0.1347
     24 C           4.3083   -1.4412    0.0000 C.ar    1  UNL1        0.0231
     25 C           3.4022    0.1143    0.0000 C.ar    1  UNL1        0.0223
     26 C           3.4022   -0.9274    0.0000 C.ar    1  UNL1        0.1239
     27 H           9.5268   -1.5015    0.0000 H       1  UNL1        0.0784
     28 H          10.8059   -0.3844    0.0000 H       1  UNL1        0.0355
     29 H          10.6348    0.4272    0.0000 H       1  UNL1        0.0355
     30 H           7.2634    1.9035    0.0000 H       1  UNL1        0.0626
     31 H           8.6663    2.7135    0.0000 H       1  UNL1        0.0654
     32 H          11.3643   -2.4674    0.0000 H       1  UNL1        0.0275
     33 H          11.9843   -1.8474    0.0000 H       1  UNL1        0.0275
     34 H          11.3643   -1.2274    0.0000 H       1  UNL1        0.0275
     35 H           7.4712   -1.2165    0.0000 H       1  UNL1        0.1037
     36 H           9.2443   -2.7135    0.0000 H       1  UNL1        0.0535
     37 H          10.1743   -3.2504    0.0000 H       1  UNL1        0.0535
     38 H          10.3984    2.7135    0.0000 H       1  UNL1        0.2921
     39 H           4.3154   -2.0612    0.0000 H       1  UNL1        0.0691
     40 H           2.8665    0.4263    0.0000 H       1  UNL1        0.0691
     41 H           3.7865    1.9442    0.0000 H       1  UNL1        0.2922
     42 H           2.0000   -1.1228    0.0000 H       1  UNL1        0.2921
@<TRIPOS>BOND
     1     1     7    1
     2     1    10    1
     3     2    13    1
     4     2    38    1
     5     3    20   ar
     6     3    22   ar
     7     4    17    2
     8     5    23    1
     9     5    41    1
    10     6    26    1
    11     6    42    1
    12     7     8    1
    13     7    12    1
    14     7    27    1
    15     8     9    1
    16     8    28    1
    17     8    29    1
    18     9    10   ar
    19     9    13   ar
    20    10    11   ar
    21    11    14    1
    22    11    15   ar
    23    12    18    1
    24    12    21    2
    25    13    16   ar
    26    14    17   ar
    27    14    20   ar
    28    15    16   ar
    29    15    30    1
    30    16    31    1
    31    17    19   ar
    32    18    32    1
    33    18    33    1
    34    18    34    1
    35    19    22   ar
    36    19    23   ar
    37    20    35    1
    38    21    36    1
    39    21    37    1
    40    22    24   ar
    41    23    25   ar
    42    24    26   ar
    43    24    39    1
    44    25    26   ar
    45    25    40    1
