@<TRIPOS>MOLECULE
IMPHY006460
 17 16 0 0 0
SMALL
GASTEIGER

@<TRIPOS>ATOM
      1 O           7.1962    0.2500    0.0000 O.3     1  UNL1       -0.3910
      2 C           5.4641    0.2500    0.0000 C.2     1  UNL1       -0.0590
      3 C           4.5981   -0.2500    0.0000 C.2     1  UNL1       -0.0639
      4 C           6.3301   -0.2500    0.0000 C.3     1  UNL1        0.0627
      5 C           3.7320    0.2500    0.0000 C.2     1  UNL1       -0.0662
      6 C           2.8660   -0.2500    0.0000 C.2     1  UNL1       -0.0871
      7 C           2.0000    0.2500    0.0000 C.3     1  UNL1       -0.0465
      8 H           5.4641    0.8700    0.0000 H       1  UNL1        0.0595
      9 H           4.5981   -0.8700    0.0000 H       1  UNL1        0.0615
     10 H           5.9316   -0.7249    0.0000 H       1  UNL1        0.0601
     11 H           6.7287   -0.7249    0.0000 H       1  UNL1        0.0601
     12 H           3.7320    0.8700    0.0000 H       1  UNL1        0.0614
     13 H           2.8660   -0.8700    0.0000 H       1  UNL1        0.0569
     14 H           2.3100    0.7869    0.0000 H       1  UNL1        0.0272
     15 H           1.4631    0.5600    0.0000 H       1  UNL1        0.0272
     16 H           1.6900   -0.2869    0.0000 H       1  UNL1        0.0272
     17 H           7.7331   -0.0600    0.0000 H       1  UNL1        0.2098
@<TRIPOS>BOND
     1     1     4    1
     2     1    17    1
     3     2     3    2
     4     2     4    1
     5     2     8    1
     6     3     5    1
     7     3     9    1
     8     4    10    1
     9     4    11    1
    10     5     6    2
    11     5    12    1
    12     6     7    1
    13     6    13    1
    14     7    14    1
    15     7    15    1
    16     7    16    1
