@<TRIPOS>MOLECULE
IMPHY003183
 51 54 0 0 0
SMALL
GASTEIGER

@<TRIPOS>ATOM
      1 O           4.6557   -0.1057    0.0000 O.3     1  UNL1       -0.3712
      2 O           7.7244   -0.1057    0.0000 O.3     1  UNL1       -0.3712
      3 O           2.6691    3.0212    0.0000 O.3     1  UNL1       -0.4914
      4 O           6.4264   -4.3001    0.0000 O.3     1  UNL1       -0.4914
      5 O           4.0074    4.5075    0.0000 O.3     1  UNL1       -0.4915
      6 O           8.3834   -4.7126    0.0000 O.3     1  UNL1       -0.5033
      7 C           6.1945    0.3943    0.0000 C.3     1  UNL1        0.0205
      8 C           6.1945   -0.6057    0.0000 C.3     1  UNL1        0.0205
      9 C           5.2435    0.7033    0.0000 C.3     1  UNL1        0.0891
     10 C           7.1407   -0.9105    0.0000 C.3     1  UNL1        0.0891
     11 C           5.2435   -0.9148    0.0000 C.3     1  UNL1        0.0544
     12 C           7.1407    0.6990    0.0000 C.3     1  UNL1        0.0544
     13 C           4.9344    1.6543    0.0000 C.ar    1  UNL1       -0.0149
     14 C           7.4514   -1.8610    0.0000 C.ar    1  UNL1       -0.0149
     15 C           3.9563    1.8622    0.0000 C.ar    1  UNL1       -0.0107
     16 C           6.7836   -2.6053    0.0000 C.ar    1  UNL1       -0.0107
     17 C           5.6036    2.3975    0.0000 C.ar    1  UNL1       -0.0524
     18 C           8.4299   -2.0672    0.0000 C.ar    1  UNL1       -0.0524
     19 C           3.6473    2.8133    0.0000 C.ar    1  UNL1        0.1618
     20 C           7.0942   -3.5558    0.0000 C.ar    1  UNL1        0.1616
     21 C           5.2946    3.3485    0.0000 C.ar    1  UNL1       -0.0160
     22 C           8.7406   -3.0177    0.0000 C.ar    1  UNL1       -0.0162
     23 C           4.3164    3.5564    0.0000 C.ar    1  UNL1        0.1615
     24 C           8.0727   -3.7620    0.0000 C.ar    1  UNL1        0.1585
     25 C           2.0000    2.2781    0.0000 C.3     1  UNL1        0.0790
     26 C           6.7370   -5.2506    0.0000 C.3     1  UNL1        0.0790
     27 C           4.6765    5.2506    0.0000 C.3     1  UNL1        0.0790
     28 H           6.1956    1.2442    0.0000 H       1  UNL1        0.0356
     29 H           6.1956   -1.4557    0.0000 H       1  UNL1        0.0356
     30 H           4.6311    0.8003    0.0000 H       1  UNL1        0.0650
     31 H           7.7532   -1.0067    0.0000 H       1  UNL1        0.0650
     32 H           4.7065   -1.2248    0.0000 H       1  UNL1        0.0564
     33 H           5.4956   -1.4812    0.0000 H       1  UNL1        0.0564
     34 H           7.6781    1.0082    0.0000 H       1  UNL1        0.0564
     35 H           6.8897    1.2659    0.0000 H       1  UNL1        0.0564
     36 H           3.5414    1.4015    0.0000 H       1  UNL1        0.0659
     37 H           6.1769   -2.4774    0.0000 H       1  UNL1        0.0659
     38 H           6.2100    2.2686    0.0000 H       1  UNL1        0.0622
     39 H           8.8440   -1.6058    0.0000 H       1  UNL1        0.0622
     40 H           5.7094    3.8093    0.0000 H       1  UNL1        0.0655
     41 H           9.3472   -3.1456    0.0000 H       1  UNL1        0.0655
     42 H           8.9901   -4.8404    0.0000 H       1  UNL1        0.2923
     43 H           1.5392    2.6929    0.0000 H       1  UNL1        0.0660
     44 H           1.5851    1.8173    0.0000 H       1  UNL1        0.0660
     45 H           2.4608    1.8632    0.0000 H       1  UNL1        0.0660
     46 H           6.1477   -5.4432    0.0000 H       1  UNL1        0.0660
     47 H           6.9296   -5.8400    0.0000 H       1  UNL1        0.0660
     48 H           7.3264   -5.0580    0.0000 H       1  UNL1        0.0660
     49 H           5.1373    4.8358    0.0000 H       1  UNL1        0.0660
     50 H           5.0914    5.7114    0.0000 H       1  UNL1        0.0660
     51 H           4.2158    5.6655    0.0000 H       1  UNL1        0.0660
@<TRIPOS>BOND
     1     1     9    1
     2     1    11    1
     3     2    10    1
     4     2    12    1
     5     3    19    1
     6     3    25    1
     7     4    20    1
     8     4    26    1
     9     5    23    1
    10     5    27    1
    11     6    24    1
    12     6    42    1
    13     7     8    1
    14     7     9    1
    15     7    12    1
    16     7    28    1
    17     8    10    1
    18     8    11    1
    19     8    29    1
    20     9    13    1
    21     9    30    1
    22    10    14    1
    23    10    31    1
    24    11    32    1
    25    11    33    1
    26    12    34    1
    27    12    35    1
    28    13    15   ar
    29    13    17   ar
    30    14    16   ar
    31    14    18   ar
    32    15    19   ar
    33    15    36    1
    34    16    20   ar
    35    16    37    1
    36    17    21   ar
    37    17    38    1
    38    18    22   ar
    39    18    39    1
    40    19    23   ar
    41    20    24   ar
    42    21    23   ar
    43    21    40    1
    44    22    24   ar
    45    22    41    1
    46    25    43    1
    47    25    44    1
    48    25    45    1
    49    26    46    1
    50    26    47    1
    51    26    48    1
    52    27    49    1
    53    27    50    1
    54    27    51    1
