@<TRIPOS>MOLECULE
IMPHY009259
 33 35 0 0 0
SMALL
GASTEIGER

@<TRIPOS>ATOM
      1 O           5.5443   -0.6824    0.0000 O.2     1  UNL1       -0.4544
      2 O           2.0000   -0.8776    0.0000 O.3     1  UNL1       -0.4913
      3 O           2.0000    1.1224    0.0000 O.3     1  UNL1       -0.5033
      4 C           4.5981    0.6224    0.0000 C.ar    1  UNL1        0.0274
      5 C           5.5443    0.9271    0.0000 C.ar    1  UNL1        0.0032
      6 C           6.1279    0.1224    0.0000 C.ar    1  UNL1        0.1391
      7 C           4.5981   -0.3776    0.0000 C.ar    1  UNL1        0.1396
      8 C           3.7320    1.1224    0.0000 C.ar    1  UNL1       -0.0055
      9 C           7.1279    0.1224    0.0000 C.ar    1  UNL1        0.0176
     10 C           3.7320   -0.8776    0.0000 C.ar    1  UNL1        0.0266
     11 C           5.8550    1.8776    0.0000 C.3     1  UNL1       -0.0355
     12 C           2.8660   -0.3776    0.0000 C.ar    1  UNL1        0.1648
     13 C           2.8660    0.6224    0.0000 C.ar    1  UNL1        0.1592
     14 C           7.6279   -0.7437    0.0000 C.ar    1  UNL1       -0.0511
     15 C           7.6279    0.9884    0.0000 C.ar    1  UNL1       -0.0511
     16 C           8.6279   -0.7437    0.0000 C.ar    1  UNL1       -0.0611
     17 C           8.6279    0.9884    0.0000 C.ar    1  UNL1       -0.0611
     18 C           9.1279    0.1224    0.0000 C.ar    1  UNL1       -0.0617
     19 C           2.0000   -1.8776    0.0000 C.3     1  UNL1        0.0790
     20 H           3.7320    1.7424    0.0000 H       1  UNL1        0.0662
     21 H           3.7320   -1.4976    0.0000 H       1  UNL1        0.0692
     22 H           6.4443    1.6850    0.0000 H       1  UNL1        0.0279
     23 H           6.0476    2.4670    0.0000 H       1  UNL1        0.0279
     24 H           5.2656    2.0702    0.0000 H       1  UNL1        0.0279
     25 H           7.3179   -1.2806    0.0000 H       1  UNL1        0.0625
     26 H           7.3179    1.5253    0.0000 H       1  UNL1        0.0625
     27 H           8.9379   -1.2806    0.0000 H       1  UNL1        0.0618
     28 H           8.9379    1.5253    0.0000 H       1  UNL1        0.0618
     29 H           9.7479    0.1224    0.0000 H       1  UNL1        0.0618
     30 H           2.0000    1.7424    0.0000 H       1  UNL1        0.2923
     31 H           1.3800   -1.8776    0.0000 H       1  UNL1        0.0660
     32 H           2.0000   -2.4976    0.0000 H       1  UNL1        0.0660
     33 H           2.6200   -1.8776    0.0000 H       1  UNL1        0.0660
@<TRIPOS>BOND
     1     1     6   ar
     2     1     7   ar
     3     2    12    1
     4     2    19    1
     5     3    13    1
     6     3    30    1
     7     4     5   ar
     8     4     7   ar
     9     4     8   ar
    10     5     6   ar
    11     5    11    1
    12     6     9    1
    13     7    10   ar
    14     8    13   ar
    15     8    20    1
    16     9    14   ar
    17     9    15   ar
    18    10    12   ar
    19    10    21    1
    20    11    22    1
    21    11    23    1
    22    11    24    1
    23    12    13   ar
    24    14    16   ar
    25    14    25    1
    26    15    17   ar
    27    15    26    1
    28    16    18   ar
    29    16    27    1
    30    17    18   ar
    31    17    28    1
    32    18    29    1
    33    19    31    1
    34    19    32    1
    35    19    33    1
