@<TRIPOS>MOLECULE
IMPHY006795
 50 55 0 0 0
SMALL
GASTEIGER

@<TRIPOS>ATOM
      1 O           2.0078    2.2412    0.0000 O.3     1  UNL1       -0.3663
      2 O           6.3981    2.6784    0.0000 O.3     1  UNL1       -0.4646
      3 O           7.2641    1.1784    0.0000 O.2     1  UNL1       -0.2453
      4 N           2.9061   -0.3563    0.0000 N.3     1  UNL1       -0.2950
      5 N           6.2691   -0.4887    0.0000 N.pl3   1  UNL1       -0.3164
      6 C           3.8000    1.1784    0.0000 C.3     1  UNL1        0.0201
      7 C           3.8000    0.1784    0.0000 C.3     1  UNL1        0.0338
      8 C           4.6660   -0.3216    0.0000 C.3     1  UNL1        0.0531
      9 C           2.9061    1.7130    0.0000 C.3     1  UNL1        0.0938
     10 C           2.0000    1.1992    0.0000 C.3     1  UNL1        0.0985
     11 C           2.0000    0.1575    0.0000 C.3     1  UNL1        0.0280
     12 C           4.6660    1.6784    0.0000 C.3     1  UNL1       -0.0098
     13 C           4.3009   -1.2460    0.0000 C.3     1  UNL1       -0.0238
     14 C           3.3073   -1.2655    0.0000 C.3     1  UNL1        0.0005
     15 C           5.5321    0.1784    0.0000 C.2     1  UNL1        0.0304
     16 C           3.8000    2.1784    0.0000 C.3     1  UNL1       -0.0460
     17 C           4.8752   -1.2934    0.0000 C.ar    1  UNL1       -0.0130
     18 C           5.5321    1.1784    0.0000 C.2     1  UNL1        0.0551
     19 C           5.8640   -1.3965    0.0000 C.ar    1  UNL1        0.0353
     20 C           4.6660    2.6784    0.0000 C.3     1  UNL1       -0.0646
     21 C           4.2545   -2.1222    0.0000 C.ar    1  UNL1       -0.0559
     22 C           6.3981    1.6784    0.0000 C.2     1  UNL1        0.3364
     23 C           6.3005   -2.3355    0.0000 C.ar    1  UNL1       -0.0403
     24 C           4.6692   -3.0710    0.0000 C.ar    1  UNL1       -0.0614
     25 C           5.6990   -3.1784    0.0000 C.ar    1  UNL1       -0.0600
     26 C           7.2641    3.1784    0.0000 C.3     1  UNL1        0.0820
     27 H           3.0639    0.6034    0.0000 H       1  UNL1        0.0481
     28 H           3.2223    2.2463    0.0000 H       1  UNL1        0.0628
     29 H           1.3800    1.2015    0.0000 H       1  UNL1        0.0635
     30 H           1.3891    0.2636    0.0000 H       1  UNL1        0.0453
     31 H           1.7909   -0.4261    0.0000 H       1  UNL1        0.0453
     32 H           5.0646    2.1533    0.0000 H       1  UNL1        0.0323
     33 H           4.2675    2.1533    0.0000 H       1  UNL1        0.0323
     34 H           4.2315   -1.8620    0.0000 H       1  UNL1        0.0290
     35 H           4.9025   -1.3959    0.0000 H       1  UNL1        0.0290
     36 H           2.7121   -1.4390    0.0000 H       1  UNL1        0.0427
     37 H           3.4010   -1.8784    0.0000 H       1  UNL1        0.0427
     38 H           3.5880    2.7610    0.0000 H       1  UNL1        0.0269
     39 H           3.1894    2.0707    0.0000 H       1  UNL1        0.0269
     40 H           6.8758   -0.3609    0.0000 H       1  UNL1        0.1519
     41 H           4.9760    2.1414    0.0000 H       1  UNL1        0.0230
     42 H           5.2030    2.9884    0.0000 H       1  UNL1        0.0230
     43 H           4.3560    3.2153    0.0000 H       1  UNL1        0.0230
     44 H           3.6386   -2.0508    0.0000 H       1  UNL1        0.0621
     45 H           6.9178   -2.3926    0.0000 H       1  UNL1        0.0636
     46 H           4.3032   -3.5715    0.0000 H       1  UNL1        0.0618
     47 H           5.9539   -3.7436    0.0000 H       1  UNL1        0.0618
     48 H           7.5741    2.6414    0.0000 H       1  UNL1        0.0661
     49 H           7.8010    3.4884    0.0000 H       1  UNL1        0.0661
     50 H           6.9541    3.7153    0.0000 H       1  UNL1        0.0661
@<TRIPOS>BOND
     1     9     1    1
     2    10     1    1
     3     2    22    1
     4     2    26    1
     5     3    22    2
     6     4     7    1
     7     4    11    1
     8     4    14    1
     9     5    15    1
    10     5    19    1
    11     5    40    1
    12     6     7    1
    13     6     9    1
    14     6    12    1
    15     6    16    1
    16     7     8    1
    17     7    27    1
    18     8    13    1
    19     8    15    1
    20     8    17    1
    21     9    10    1
    22     9    28    1
    23    10    11    1
    24    10    29    1
    25    11    30    1
    26    11    31    1
    27    12    18    1
    28    12    32    1
    29    12    33    1
    30    13    14    1
    31    13    34    1
    32    13    35    1
    33    14    36    1
    34    14    37    1
    35    15    18    2
    36    16    20    1
    37    16    38    1
    38    16    39    1
    39    17    19   ar
    40    17    21   ar
    41    18    22    1
    42    19    23   ar
    43    20    41    1
    44    20    42    1
    45    20    43    1
    46    21    24   ar
    47    21    44    1
    48    23    25   ar
    49    23    45    1
    50    24    25   ar
    51    24    46    1
    52    25    47    1
    53    26    48    1
    54    26    49    1
    55    26    50    1
