@<TRIPOS>MOLECULE
IMPHY000238
 122 128 0 0 0
SMALL
GASTEIGER

@<TRIPOS>ATOM
      1 O           7.7331   -1.6941    0.0000 O.3     1  UNL1       -0.3449
      2 O           9.4869    7.5853    0.0000 O.3     1  UNL1       -0.4802
      3 O          10.3702    6.0954    0.0000 O.2     1  UNL1       -0.2504
      4 O           6.0010   -1.6941    0.0000 O.3     1  UNL1       -0.3405
      5 O           7.7331   -3.6941    0.0000 O.3     1  UNL1       -0.3841
      6 O           6.0010   -4.6941    0.0000 O.3     1  UNL1       -0.3401
      7 O           4.2690   -3.6941    0.0000 O.3     1  UNL1       -0.3865
      8 O           4.2690   -0.6941    0.0000 O.3     1  UNL1       -0.3924
      9 O           4.2690   -4.6941    0.0000 O.3     1  UNL1       -0.3431
     10 O           6.0010   -6.6941    0.0000 O.3     1  UNL1       -0.3841
     11 O           4.2690   -7.6941    0.0000 O.3     1  UNL1       -0.3864
     12 O           2.5369   -6.6941    0.0000 O.3     1  UNL1       -0.3866
     13 C           8.6342    3.0061    0.0000 C.3     1  UNL1       -0.0194
     14 C           7.7701    2.5027    0.0000 C.3     1  UNL1       -0.0257
     15 C           7.7580    1.4612    0.0000 C.3     1  UNL1       -0.0250
     16 C           8.6303    4.0061    0.0000 C.3     1  UNL1       -0.0051
     17 C           8.6581    0.9369    0.0000 C.3     1  UNL1       -0.0278
     18 C           9.5461    2.5027    0.0000 C.3     1  UNL1       -0.0463
     19 C           8.6706   -0.1480    0.0000 C.3     1  UNL1       -0.0052
     20 C           9.5581    1.4612    0.0000 C.3     1  UNL1       -0.0486
     21 C           7.7624    4.5027    0.0000 C.2     1  UNL1       -0.0629
     22 C           6.9021    2.9994    0.0000 C.3     1  UNL1       -0.0306
     23 C           6.8081    0.9369    0.0000 C.3     1  UNL1       -0.0447
     24 C           7.7423    5.5442    0.0000 C.3     1  UNL1       -0.0031
     25 C           9.5383    4.5164    0.0000 C.3     1  UNL1       -0.0424
     26 C           8.6383    6.0754    0.0000 C.3     1  UNL1        0.0741
     27 C           9.6183    3.1835    0.0000 C.3     1  UNL1       -0.0585
     28 C           7.7331   -0.6941    0.0000 C.3     1  UNL1        0.0672
     29 C           9.5424    5.5580    0.0000 C.3     1  UNL1       -0.0359
     30 C           6.8939    1.9645    0.0000 C.3     1  UNL1       -0.0590
     31 C           6.7956   -0.1480    0.0000 C.3     1  UNL1       -0.0255
     32 C           6.8983    3.9994    0.0000 C.2     1  UNL1       -0.0836
     33 C           9.6158    3.8362    0.0000 C.3     1  UNL1       -0.0553
     34 C           6.7884    6.0611    0.0000 C.3     1  UNL1       -0.0403
     35 C           8.6424    7.1604    0.0000 C.3     1  UNL1       -0.0362
     36 C           6.7674    7.1459    0.0000 C.3     1  UNL1       -0.0343
     37 C           9.6706   -0.1403    0.0000 C.3     1  UNL1       -0.0572
     38 C           9.1773   -1.0102    0.0000 C.3     1  UNL1       -0.0572
     39 C           7.7007    7.6992    0.0000 C.3     1  UNL1       -0.0468
     40 C           9.4985    6.5854    0.0000 C.2     1  UNL1        0.3115
     41 C           6.2542    8.0041    0.0000 C.3     1  UNL1       -0.0598
     42 C           5.7676    7.1305    0.0000 C.3     1  UNL1       -0.0598
     43 C           6.8671   -2.1941    0.0000 C.3     1  UNL1        0.1882
     44 C           6.8671   -3.1941    0.0000 C.3     1  UNL1        0.1345
     45 C           6.0010   -3.6941    0.0000 C.3     1  UNL1        0.1206
     46 C           5.1350   -2.1941    0.0000 C.3     1  UNL1        0.1130
     47 C           5.1350   -3.1941    0.0000 C.3     1  UNL1        0.1123
     48 C           4.2690   -1.6941    0.0000 C.3     1  UNL1        0.0730
     49 C           5.1350   -5.1941    0.0000 C.3     1  UNL1        0.1883
     50 C           5.1350   -6.1941    0.0000 C.3     1  UNL1        0.1341
     51 C           4.2690   -6.6941    0.0000 C.3     1  UNL1        0.1140
     52 C           3.4030   -5.1941    0.0000 C.3     1  UNL1        0.0873
     53 C           3.4030   -6.1941    0.0000 C.3     1  UNL1        0.1095
     54 C           2.5369   -4.6941    0.0000 C.3     1  UNL1       -0.0361
     55 H           8.5045    2.0749    0.0000 H       1  UNL1        0.0315
     56 H           9.3974    0.5176    0.0000 H       1  UNL1        0.0312
     57 H          10.1581    2.4037    0.0000 H       1  UNL1        0.0271
     58 H           9.7484    3.0888    0.0000 H       1  UNL1        0.0271
     59 H           9.7739    0.8800    0.0000 H       1  UNL1        0.0268
     60 H          10.1677    1.5743    0.0000 H       1  UNL1        0.0268
     61 H           6.2911    3.1047    0.0000 H       1  UNL1        0.0310
     62 H           6.6923    2.4160    0.0000 H       1  UNL1        0.0310
     63 H           6.6058    1.5230    0.0000 H       1  UNL1        0.0271
     64 H           6.1961    0.8379    0.0000 H       1  UNL1        0.0271
     65 H           7.0162    5.1023    0.0000 H       1  UNL1        0.0357
     66 H           9.7451    3.9319    0.0000 H       1  UNL1        0.0274
     67 H          10.1496    4.6202    0.0000 H       1  UNL1        0.0274
     68 H           9.7283    2.5734    0.0000 H       1  UNL1        0.0235
     69 H          10.2284    3.2936    0.0000 H       1  UNL1        0.0235
     70 H           9.5083    3.7937    0.0000 H       1  UNL1        0.0235
     71 H           8.2706   -1.0031    0.0000 H       1  UNL1        0.0602
     72 H          10.1528    5.4496    0.0000 H       1  UNL1        0.0276
     73 H           9.7536    6.1409    0.0000 H       1  UNL1        0.0276
     74 H           7.2060    2.5003    0.0000 H       1  UNL1        0.0235
     75 H           6.3582    2.2766    0.0000 H       1  UNL1        0.0235
     76 H           6.5818    1.4288    0.0000 H       1  UNL1        0.0235
     77 H           6.1860   -0.0349    0.0000 H       1  UNL1        0.0290
     78 H           6.5798   -0.7293    0.0000 H       1  UNL1        0.0290
     79 H           6.3601    4.3073    0.0000 H       1  UNL1        0.0572
     80 H           9.5105    3.2252    0.0000 H       1  UNL1        0.0238
     81 H          10.2268    3.7309    0.0000 H       1  UNL1        0.0238
     82 H           9.7211    4.4472    0.0000 H       1  UNL1        0.0238
     83 H           6.1756    6.1554    0.0000 H       1  UNL1        0.0276
     84 H           6.5906    5.4735    0.0000 H       1  UNL1        0.0276
     85 H           9.2529    7.0519    0.0000 H       1  UNL1        0.0276
     86 H           8.8538    7.7433    0.0000 H       1  UNL1        0.0276
     87 H           9.6754   -0.7603    0.0000 H       1  UNL1        0.0236
     88 H          10.2906   -0.1355    0.0000 H       1  UNL1        0.0236
     89 H           9.6658    0.4797    0.0000 H       1  UNL1        0.0236
     90 H           8.6428   -1.3243    0.0000 H       1  UNL1        0.0236
     91 H           9.4914   -1.5447    0.0000 H       1  UNL1        0.0236
     92 H           9.7118   -0.6960    0.0000 H       1  UNL1        0.0236
     93 H           8.0962    8.1767    0.0000 H       1  UNL1        0.0271
     94 H           7.2980    8.1706    0.0000 H       1  UNL1        0.0271
     95 H           5.7580    7.7504    0.0000 H       1  UNL1        0.0235
     96 H           5.1476    7.1209    0.0000 H       1  UNL1        0.0235
     97 H           6.7862    8.3224    0.0000 H       1  UNL1        0.0235
     98 H           5.9359    8.5362    0.0000 H       1  UNL1        0.0235
     99 H           5.7220    7.6859    0.0000 H       1  UNL1        0.0235
    100 H           5.7771    6.5106    0.0000 H       1  UNL1        0.0235
    101 H           7.4040   -2.5041    0.0000 H       1  UNL1        0.0937
    102 H          10.0202    7.9015    0.0000 H       1  UNL1        0.2951
    103 H           6.8671   -3.8141    0.0000 H       1  UNL1        0.0671
    104 H           5.4641   -4.0041    0.0000 H       1  UNL1        0.0651
    105 H           5.1350   -1.5741    0.0000 H       1  UNL1        0.0647
    106 H           4.5981   -2.8841    0.0000 H       1  UNL1        0.0647
    107 H           7.7331   -4.3141    0.0000 H       1  UNL1        0.2101
    108 H           3.6584   -1.5865    0.0000 H       1  UNL1        0.0584
    109 H           4.0569   -2.2767    0.0000 H       1  UNL1        0.0584
    110 H           3.7320   -3.3841    0.0000 H       1  UNL1        0.2100
    111 H           5.1350   -4.5741    0.0000 H       1  UNL1        0.0938
    112 H           3.7320   -0.3841    0.0000 H       1  UNL1        0.2095
    113 H           5.1350   -6.8141    0.0000 H       1  UNL1        0.0671
    114 H           3.7320   -7.0041    0.0000 H       1  UNL1        0.0648
    115 H           3.4030   -4.5741    0.0000 H       1  UNL1        0.0621
    116 H           2.8660   -5.8841    0.0000 H       1  UNL1        0.0646
    117 H           6.0010   -7.3141    0.0000 H       1  UNL1        0.2101
    118 H           2.8469   -4.1572    0.0000 H       1  UNL1        0.0255
    119 H           2.0000   -4.3841    0.0000 H       1  UNL1        0.0255
    120 H           2.2269   -5.2311    0.0000 H       1  UNL1        0.0255
    121 H           3.7320   -8.0041    0.0000 H       1  UNL1        0.2100
    122 H           2.0000   -6.3841    0.0000 H       1  UNL1        0.2100
@<TRIPOS>BOND
     1     1    28    1
     2    43     1    1
     3     2    40    1
     4     2   102    1
     5     3    40    2
     6     4    43    1
     7     4    46    1
     8    44     5    1
     9     5   107    1
    10    45     6    1
    11    49     6    1
    12    47     7    1
    13     7   110    1
    14     8    48    1
    15     8   112    1
    16     9    49    1
    17     9    52    1
    18    50    10    1
    19    10   117    1
    20    51    11    1
    21    11   121    1
    22    53    12    1
    23    12   122    1
    24    13    14    1
    25    13    16    1
    26    13    18    1
    27    13    27    1
    28    14    15    1
    29    14    22    1
    30    14    55    1
    31    15    17    1
    32    15    23    1
    33    15    30    1
    34    16    21    1
    35    16    25    1
    36    16    33    1
    37    17    19    1
    38    17    20    1
    39    17    56    1
    40    18    20    1
    41    18    57    1
    42    18    58    1
    43    19    28    1
    44    19    37    1
    45    19    38    1
    46    20    59    1
    47    20    60    1
    48    21    24    1
    49    21    32    2
    50    22    32    1
    51    22    61    1
    52    22    62    1
    53    23    31    1
    54    23    63    1
    55    23    64    1
    56    24    26    1
    57    24    34    1
    58    24    65    1
    59    25    29    1
    60    25    66    1
    61    25    67    1
    62    26    29    1
    63    26    35    1
    64    26    40    1
    65    27    68    1
    66    27    69    1
    67    27    70    1
    68    28    31    1
    69    28    71    1
    70    29    72    1
    71    29    73    1
    72    30    74    1
    73    30    75    1
    74    30    76    1
    75    31    77    1
    76    31    78    1
    77    32    79    1
    78    33    80    1
    79    33    81    1
    80    33    82    1
    81    34    36    1
    82    34    83    1
    83    34    84    1
    84    35    39    1
    85    35    85    1
    86    35    86    1
    87    36    39    1
    88    36    41    1
    89    36    42    1
    90    37    87    1
    91    37    88    1
    92    37    89    1
    93    38    90    1
    94    38    91    1
    95    38    92    1
    96    39    93    1
    97    39    94    1
    98    41    97    1
    99    41    98    1
   100    41    99    1
   101    42    95    1
   102    42    96    1
   103    42   100    1
   104    43    44    1
   105    43   101    1
   106    44    45    1
   107    44   103    1
   108    45    47    1
   109    45   104    1
   110    46    47    1
   111    46    48    1
   112    46   105    1
   113    47   106    1
   114    48   108    1
   115    48   109    1
   116    49    50    1
   117    49   111    1
   118    50    51    1
   119    50   113    1
   120    51    53    1
   121    51   114    1
   122    52    53    1
   123    52    54    1
   124    52   115    1
   125    53   116    1
   126    54   118    1
   127    54   119    1
   128    54   120    1
