@<TRIPOS>MOLECULE
IMPHY013535
 50 51 0 0 0
SMALL
GASTEIGER

@<TRIPOS>ATOM
      1 O           6.0010   -0.3450    0.0000 O.3     1  UNL1       -0.3484
      2 O           4.2690   -0.3450    0.0000 O.3     1  UNL1       -0.3405
      3 O           6.0010   -2.3450    0.0000 O.3     1  UNL1       -0.3841
      4 O           4.2690   -3.3450    0.0000 O.3     1  UNL1       -0.3864
      5 O           2.5369   -2.3450    0.0000 O.3     1  UNL1       -0.3865
      6 O           2.5369    0.6550    0.0000 O.3     1  UNL1       -0.3924
      7 C           6.8671    1.1550    0.0000 C.3     1  UNL1       -0.0174
      8 C           8.5991    2.1550    0.0000 C.3     1  UNL1       -0.0204
      9 C           7.7331    0.6550    0.0000 C.3     1  UNL1       -0.0476
     10 C           6.8671    2.1550    0.0000 C.3     1  UNL1       -0.0476
     11 C           8.5991    1.1550    0.0000 C.3     1  UNL1       -0.0462
     12 C           7.7331    2.6550    0.0000 C.3     1  UNL1       -0.0462
     13 C           6.0010    0.6550    0.0000 C.3     1  UNL1        0.0536
     14 C           5.1350   -0.8450    0.0000 C.3     1  UNL1        0.1879
     15 C           5.1350   -1.8450    0.0000 C.3     1  UNL1        0.1341
     16 C           4.2690   -2.3450    0.0000 C.3     1  UNL1        0.1141
     17 C           3.4030   -1.8450    0.0000 C.3     1  UNL1        0.1119
     18 C           3.4030   -0.8450    0.0000 C.3     1  UNL1        0.1130
     19 C           9.4651    2.6550    0.0000 C.2     1  UNL1       -0.0766
     20 C           2.5369   -0.3450    0.0000 C.3     1  UNL1        0.0730
     21 C           9.4651    3.6550    0.0000 C.3     1  UNL1       -0.0438
     22 C          10.3312    2.1550    0.0000 C.2     1  UNL1       -0.0994
     23 H           6.8671    0.5350    0.0000 H       1  UNL1        0.0323
     24 H           8.5991    2.7750    0.0000 H       1  UNL1        0.0345
     25 H           7.3346    0.1801    0.0000 H       1  UNL1        0.0269
     26 H           8.1316    0.1801    0.0000 H       1  UNL1        0.0269
     27 H           6.6550    2.7376    0.0000 H       1  UNL1        0.0269
     28 H           6.2565    2.0473    0.0000 H       1  UNL1        0.0269
     29 H           8.8112    0.5724    0.0000 H       1  UNL1        0.0271
     30 H           9.2097    1.2627    0.0000 H       1  UNL1        0.0271
     31 H           8.1316    3.1300    0.0000 H       1  UNL1        0.0271
     32 H           7.3346    3.1300    0.0000 H       1  UNL1        0.0271
     33 H           5.7890    1.2376    0.0000 H       1  UNL1        0.0563
     34 H           5.3905    0.5473    0.0000 H       1  UNL1        0.0563
     35 H           5.1350   -0.2250    0.0000 H       1  UNL1        0.0937
     36 H           5.1350   -2.4650    0.0000 H       1  UNL1        0.0671
     37 H           3.7320   -2.6550    0.0000 H       1  UNL1        0.0648
     38 H           3.4030   -2.4650    0.0000 H       1  UNL1        0.0647
     39 H           3.4030   -0.2250    0.0000 H       1  UNL1        0.0647
     40 H           1.9264   -0.2373    0.0000 H       1  UNL1        0.0584
     41 H           2.3249   -0.9276    0.0000 H       1  UNL1        0.0584
     42 H          10.0851    3.6550    0.0000 H       1  UNL1        0.0274
     43 H           9.4651    4.2750    0.0000 H       1  UNL1        0.0274
     44 H           8.8451    3.6550    0.0000 H       1  UNL1        0.0274
     45 H           6.5380   -2.0350    0.0000 H       1  UNL1        0.2101
     46 H           3.7320   -3.6550    0.0000 H       1  UNL1        0.2100
     47 H           2.0000   -2.0350    0.0000 H       1  UNL1        0.2100
     48 H          10.3312    1.5350    0.0000 H       1  UNL1        0.0534
     49 H          10.8681    2.4650    0.0000 H       1  UNL1        0.0534
     50 H           2.0000    0.9650    0.0000 H       1  UNL1        0.2095
@<TRIPOS>BOND
     1     1    13    1
     2     1    14    1
     3     2    14    1
     4     2    18    1
     5     3    15    1
     6     3    45    1
     7     4    16    1
     8     4    46    1
     9     5    17    1
    10     5    47    1
    11     6    20    1
    12     6    50    1
    13     7     9    1
    14     7    10    1
    15     7    13    1
    16     7    23    1
    17     8    11    1
    18     8    12    1
    19     8    19    1
    20     8    24    1
    21     9    11    1
    22     9    25    1
    23     9    26    1
    24    10    12    1
    25    10    27    1
    26    10    28    1
    27    11    29    1
    28    11    30    1
    29    12    31    1
    30    12    32    1
    31    13    33    1
    32    13    34    1
    33    14    15    1
    34    14    35    1
    35    15    16    1
    36    15    36    1
    37    16    17    1
    38    16    37    1
    39    17    18    1
    40    17    38    1
    41    18    20    1
    42    18    39    1
    43    19    21    1
    44    19    22    2
    45    20    40    1
    46    20    41    1
    47    21    42    1
    48    21    43    1
    49    21    44    1
    50    22    48    1
    51    22    49    1
