@<TRIPOS>MOLECULE
IMPHY009920
 90 91 0 0 0
SMALL
GASTEIGER

@<TRIPOS>ATOM
      1 O           4.2690   -6.5000    0.0000 O.3     1  UNL1       -0.3312
      2 O          14.6613    6.5000    0.0000 O.3     1  UNL1       -0.3312
      3 O          16.3933    8.5000    0.0000 O.3     1  UNL1       -0.3865
      4 O           2.5369   -8.5000    0.0000 O.3     1  UNL1       -0.3865
      5 O          14.6613    9.5000    0.0000 O.3     1  UNL1       -0.3864
      6 O           4.2690   -9.5000    0.0000 O.3     1  UNL1       -0.3864
      7 O          12.9292    8.5000    0.0000 O.3     1  UNL1       -0.3829
      8 O           6.0010   -8.5000    0.0000 O.3     1  UNL1       -0.3829
      9 O          12.9292    6.5000    0.0000 O.3     1  UNL1       -0.4290
     10 O           6.0010   -6.5000    0.0000 O.3     1  UNL1       -0.4290
     11 O           2.5369   -5.5000    0.0000 O.3     1  UNL1       -0.3924
     12 O          17.2594    7.0000    0.0000 O.3     1  UNL1       -0.3924
     13 O          13.7953    5.0000    0.0000 O.2     1  UNL1       -0.2452
     14 O           5.1350   -5.0000    0.0000 O.2     1  UNL1       -0.2452
     15 C          15.5273    8.0000    0.0000 C.3     1  UNL1        0.1120
     16 C           3.4030   -8.0000    0.0000 C.3     1  UNL1        0.1120
     17 C           4.2690   -8.5000    0.0000 C.3     1  UNL1        0.1152
     18 C          14.6613    8.5000    0.0000 C.3     1  UNL1        0.1152
     19 C           3.4030   -7.0000    0.0000 C.3     1  UNL1        0.1140
     20 C          15.5273    7.0000    0.0000 C.3     1  UNL1        0.1140
     21 C           5.1350   -8.0000    0.0000 C.3     1  UNL1        0.1455
     22 C          13.7953    8.0000    0.0000 C.3     1  UNL1        0.1455
     23 C           5.1350   -7.0000    0.0000 C.3     1  UNL1        0.2341
     24 C          13.7953    7.0000    0.0000 C.3     1  UNL1        0.2341
     25 C           2.5369   -6.5000    0.0000 C.3     1  UNL1        0.0731
     26 C          16.3933    6.5000    0.0000 C.3     1  UNL1        0.0731
     27 C          12.9292    5.5000    0.0000 C.2     1  UNL1        0.3371
     28 C           6.0010   -5.5000    0.0000 C.2     1  UNL1        0.3371
     29 C          12.0632    5.0000    0.0000 C.2     1  UNL1        0.0336
     30 C           6.8671   -5.0000    0.0000 C.2     1  UNL1        0.0336
     31 C           7.7331   -5.5000    0.0000 C.3     1  UNL1       -0.0329
     32 C          11.1972    5.5000    0.0000 C.3     1  UNL1       -0.0329
     33 C           6.8671   -4.0000    0.0000 C.2     1  UNL1       -0.0521
     34 C          12.0632    4.0000    0.0000 C.2     1  UNL1       -0.0521
     35 C           7.7331   -3.5000    0.0000 C.2     1  UNL1       -0.0610
     36 C          11.1972    3.5000    0.0000 C.2     1  UNL1       -0.0610
     37 C          11.1972    2.5000    0.0000 C.2     1  UNL1       -0.0588
     38 C           7.7331   -2.5000    0.0000 C.2     1  UNL1       -0.0588
     39 C           8.5991   -2.0000    0.0000 C.2     1  UNL1       -0.0504
     40 C          10.3312    2.0000    0.0000 C.2     1  UNL1       -0.0504
     41 C          10.3312    1.0000    0.0000 C.2     1  UNL1       -0.0588
     42 C           8.5991   -1.0000    0.0000 C.2     1  UNL1       -0.0588
     43 C           9.4651   -2.5000    0.0000 C.3     1  UNL1       -0.0397
     44 C           9.4651    2.5000    0.0000 C.3     1  UNL1       -0.0397
     45 C           9.4651   -0.5000    0.0000 C.2     1  UNL1       -0.0615
     46 C           9.4651    0.5000    0.0000 C.2     1  UNL1       -0.0615
     47 H          15.5273    8.6200    0.0000 H       1  UNL1        0.0647
     48 H           3.4030   -8.6200    0.0000 H       1  UNL1        0.0647
     49 H           4.8059   -8.8100    0.0000 H       1  UNL1        0.0648
     50 H          14.1244    8.8100    0.0000 H       1  UNL1        0.0648
     51 H           3.4030   -6.3800    0.0000 H       1  UNL1        0.0647
     52 H          15.5273    6.3800    0.0000 H       1  UNL1        0.0647
     53 H           5.6720   -7.6900    0.0000 H       1  UNL1        0.0683
     54 H          14.3573    8.6200    0.0000 H       1  UNL1        0.0683
     55 H           5.1350   -6.3800    0.0000 H       1  UNL1        0.1085
     56 H          13.7953    6.3800    0.0000 H       1  UNL1        0.1085
     57 H          15.9948    6.0250    0.0000 H       1  UNL1        0.0584
     58 H          16.7919    6.0250    0.0000 H       1  UNL1        0.0584
     59 H           1.9264   -6.3923    0.0000 H       1  UNL1        0.0584
     60 H           2.3249   -7.0826    0.0000 H       1  UNL1        0.0584
     61 H           2.0000   -8.1900    0.0000 H       1  UNL1        0.2100
     62 H          16.3933    9.1200    0.0000 H       1  UNL1        0.2100
     63 H           3.7320   -9.8100    0.0000 H       1  UNL1        0.2100
     64 H          15.1982    9.8100    0.0000 H       1  UNL1        0.2100
     65 H           6.5380   -8.1900    0.0000 H       1  UNL1        0.2102
     66 H          12.9292    9.1200    0.0000 H       1  UNL1        0.2102
     67 H           2.0000   -5.1900    0.0000 H       1  UNL1        0.2095
     68 H          17.7963    6.6900    0.0000 H       1  UNL1        0.2095
     69 H          11.5072    6.0369    0.0000 H       1  UNL1        0.0280
     70 H          10.6603    5.8100    0.0000 H       1  UNL1        0.0280
     71 H          10.8872    4.9631    0.0000 H       1  UNL1        0.0280
     72 H           7.4231   -6.0369    0.0000 H       1  UNL1        0.0280
     73 H           8.2700   -5.8100    0.0000 H       1  UNL1        0.0280
     74 H           8.0431   -4.9631    0.0000 H       1  UNL1        0.0280
     75 H           6.3301   -3.6900    0.0000 H       1  UNL1        0.0622
     76 H          12.6002    3.6900    0.0000 H       1  UNL1        0.0622
     77 H           8.2700   -3.8100    0.0000 H       1  UNL1        0.0618
     78 H          10.6603    3.8100    0.0000 H       1  UNL1        0.0618
     79 H          11.7341    2.1900    0.0000 H       1  UNL1        0.0620
     80 H           7.1962   -2.1900    0.0000 H       1  UNL1        0.0620
     81 H          10.8681    0.6900    0.0000 H       1  UNL1        0.0620
     82 H           8.0622   -0.6900    0.0000 H       1  UNL1        0.0620
     83 H           9.1551   -3.0369    0.0000 H       1  UNL1        0.0278
     84 H           9.7751    3.0369    0.0000 H       1  UNL1        0.0278
     85 H           8.9282    2.8100    0.0000 H       1  UNL1        0.0278
     86 H           9.1551    1.9631    0.0000 H       1  UNL1        0.0278
     87 H          10.0021   -2.8100    0.0000 H       1  UNL1        0.0278
     88 H           9.7751   -1.9631    0.0000 H       1  UNL1        0.0278
     89 H           8.9282    0.8100    0.0000 H       1  UNL1        0.0618
     90 H          10.0021   -0.8100    0.0000 H       1  UNL1        0.0618
@<TRIPOS>BOND
     1     1    19    1
     2     1    23    1
     3     2    20    1
     4     2    24    1
     5    15     3    1
     6     3    62    1
     7    16     4    1
     8     4    61    1
     9    18     5    1
    10     5    64    1
    11    17     6    1
    12     6    63    1
    13    22     7    1
    14     7    66    1
    15    21     8    1
    16     8    65    1
    17    24     9    1
    18     9    27    1
    19    23    10    1
    20    10    28    1
    21    11    25    1
    22    11    67    1
    23    12    26    1
    24    12    68    1
    25    13    27    2
    26    14    28    2
    27    15    18    1
    28    15    20    1
    29    15    47    1
    30    16    17    1
    31    16    19    1
    32    16    48    1
    33    17    21    1
    34    17    49    1
    35    18    22    1
    36    18    50    1
    37    19    25    1
    38    19    51    1
    39    20    26    1
    40    20    52    1
    41    21    23    1
    42    21    53    1
    43    22    24    1
    44    22    54    1
    45    23    55    1
    46    24    56    1
    47    25    59    1
    48    25    60    1
    49    26    57    1
    50    26    58    1
    51    27    29    1
    52    28    30    1
    53    29    32    1
    54    29    34    2
    55    30    31    1
    56    30    33    2
    57    31    72    1
    58    31    73    1
    59    31    74    1
    60    32    69    1
    61    32    70    1
    62    32    71    1
    63    33    35    1
    64    33    75    1
    65    34    36    1
    66    34    76    1
    67    35    38    2
    68    35    77    1
    69    36    37    2
    70    36    78    1
    71    37    40    1
    72    37    79    1
    73    38    39    1
    74    38    80    1
    75    39    42    2
    76    39    43    1
    77    40    41    2
    78    40    44    1
    79    41    46    1
    80    41    81    1
    81    42    45    1
    82    42    82    1
    83    43    83    1
    84    43    87    1
    85    43    88    1
    86    44    84    1
    87    44    85    1
    88    44    86    1
    89    45    46    2
    90    45    90    1
    91    46    89    1
