@<TRIPOS>MOLECULE
IMPHY016811
 13 12 0 0 0
SMALL
GASTEIGER

@<TRIPOS>ATOM
      1 N           2.0000   -0.5000    0.0000 N.1     1  UNL1       -0.1966
      2 N           7.1962   -0.5000    0.0000 N.1     1  UNL1       -0.1966
      3 C           4.5981    0.0000    0.0000 C.3     1  UNL1       -0.0274
      4 C           3.7320    0.5000    0.0000 C.3     1  UNL1        0.0357
      5 C           5.4641    0.5000    0.0000 C.3     1  UNL1        0.0357
      6 C           2.8660   -0.0000    0.0000 C.1     1  UNL1        0.0625
      7 C           6.3301    0.0000    0.0000 C.1     1  UNL1        0.0625
      8 H           4.1996   -0.4749    0.0000 H       1  UNL1        0.0285
      9 H           4.9966   -0.4749    0.0000 H       1  UNL1        0.0285
     10 H           4.1306    0.9749    0.0000 H       1  UNL1        0.0418
     11 H           3.3335    0.9749    0.0000 H       1  UNL1        0.0418
     12 H           5.8626    0.9749    0.0000 H       1  UNL1        0.0418
     13 H           5.0656    0.9749    0.0000 H       1  UNL1        0.0418
@<TRIPOS>BOND
     1     1     6    3
     2     2     7    3
     3     3     4    1
     4     3     5    1
     5     3     8    1
     6     3     9    1
     7     4     6    1
     8     4    10    1
     9     4    11    1
    10     5     7    1
    11     5    12    1
    12     5    13    1
