@<TRIPOS>MOLECULE
IMPHY013405
 72 76 0 0 0
SMALL
GASTEIGER

@<TRIPOS>ATOM
      1 O          10.3551    3.6146    0.0000 O.3     1  UNL1       -0.3609
      2 O           5.1350   -2.4412    0.0000 O.3     1  UNL1       -0.3313
      3 O           8.6153    1.6213    0.0000 O.3     1  UNL1       -0.3862
      4 O          10.3435    0.6146    0.0000 O.3     1  UNL1       -0.3865
      5 O          12.0794    1.6079    0.0000 O.3     1  UNL1       -0.3865
      6 O           6.8671   -2.4412    0.0000 O.3     1  UNL1       -0.4608
      7 O           5.1350   -5.4412    0.0000 O.3     1  UNL1       -0.3864
      8 O           3.4030   -4.4412    0.0000 O.3     1  UNL1       -0.3865
      9 O           6.8671   -4.4412    0.0000 O.3     1  UNL1       -0.3829
     10 O           7.7671    2.0830    0.0000 O.2     1  UNL1       -0.4540
     11 O          12.9512    3.1046    0.0000 O.3     1  UNL1       -0.3924
     12 O           9.4948    5.1179    0.0000 O.3     1  UNL1       -0.5062
     13 O           2.5369   -2.9412    0.0000 O.3     1  UNL1       -0.3924
     14 O           6.0308    5.1313    0.0000 O.3     1  UNL1       -0.5058
     15 O           5.1208    3.6379    0.0000 O.2     1  UNL1       -0.2869
     16 C           9.4833    2.1179    0.0000 C.3     1  UNL1        0.1139
     17 C          10.3474    1.6146    0.0000 C.3     1  UNL1        0.1121
     18 C           9.4871    3.1179    0.0000 C.3     1  UNL1        0.1193
     19 C          11.2153    2.1112    0.0000 C.3     1  UNL1        0.1117
     20 C          11.2192    3.1112    0.0000 C.3     1  UNL1        0.1108
     21 C           8.6230    3.6212    0.0000 C.ar    1  UNL1        0.0682
     22 C           5.1350   -4.4412    0.0000 C.3     1  UNL1        0.1152
     23 C           4.2690   -3.9412    0.0000 C.3     1  UNL1        0.1120
     24 C           6.0010   -3.9412    0.0000 C.3     1  UNL1        0.1454
     25 C           4.2690   -2.9412    0.0000 C.3     1  UNL1        0.1140
     26 C          12.0871    3.6079    0.0000 C.3     1  UNL1        0.0729
     27 C           6.0010   -2.9412    0.0000 C.3     1  UNL1        0.2308
     28 C           7.7551    3.1246    0.0000 C.ar    1  UNL1        0.1520
     29 C           8.6269    4.6212    0.0000 C.ar    1  UNL1        0.1296
     30 C           3.4030   -2.4412    0.0000 C.3     1  UNL1        0.0731
     31 C           6.8910    3.6279    0.0000 C.ar    1  UNL1        0.1058
     32 C           7.7628    5.1246    0.0000 C.ar    1  UNL1        0.0226
     33 C           6.8948    4.6279    0.0000 C.ar    1  UNL1        0.1347
     34 C           6.8671    1.5588    0.0000 C.ar    1  UNL1        0.1392
     35 C           5.9790    3.1246    0.0000 C.ar    1  UNL1        0.1966
     36 C           6.8671   -1.4412    0.0000 C.ar    1  UNL1        0.1240
     37 C           5.9670    2.0830    0.0000 C.ar    1  UNL1        0.0288
     38 C           6.8671    0.5587    0.0000 C.ar    1  UNL1        0.0176
     39 C           7.7331   -0.9413    0.0000 C.ar    1  UNL1       -0.0192
     40 C           6.0010   -0.9413    0.0000 C.ar    1  UNL1       -0.0192
     41 C           7.7331    0.0587    0.0000 C.ar    1  UNL1       -0.0476
     42 C           6.0010    0.0587    0.0000 C.ar    1  UNL1       -0.0476
     43 H           8.9475    2.4300    0.0000 H       1  UNL1        0.0649
     44 H          10.8831    1.3025    0.0000 H       1  UNL1        0.0647
     45 H           9.4904    3.9679    0.0000 H       1  UNL1        0.0676
     46 H          11.7534    2.4192    0.0000 H       1  UNL1        0.0647
     47 H          11.2215    3.7312    0.0000 H       1  UNL1        0.0646
     48 H           4.5981   -4.7512    0.0000 H       1  UNL1        0.0648
     49 H           4.2690   -4.5612    0.0000 H       1  UNL1        0.0647
     50 H           6.0010   -4.5612    0.0000 H       1  UNL1        0.0683
     51 H           4.2690   -2.3212    0.0000 H       1  UNL1        0.0647
     52 H          12.4875    4.0813    0.0000 H       1  UNL1        0.0584
     53 H          11.6904    4.0844    0.0000 H       1  UNL1        0.0584
     54 H           6.0010   -2.3212    0.0000 H       1  UNL1        0.1084
     55 H           8.6129    1.0013    0.0000 H       1  UNL1        0.2100
     56 H          10.8792    0.3025    0.0000 H       1  UNL1        0.2100
     57 H          12.0770    0.9879    0.0000 H       1  UNL1        0.2100
     58 H           3.8015   -1.9663    0.0000 H       1  UNL1        0.0584
     59 H           3.0044   -1.9663    0.0000 H       1  UNL1        0.0584
     60 H           7.7652    5.7446    0.0000 H       1  UNL1        0.0691
     61 H           5.6720   -5.7512    0.0000 H       1  UNL1        0.2100
     62 H           3.4030   -5.0612    0.0000 H       1  UNL1        0.2100
     63 H           7.4040   -4.1312    0.0000 H       1  UNL1        0.2102
     64 H          13.4893    3.4125    0.0000 H       1  UNL1        0.2095
     65 H           5.4277    1.7772    0.0000 H       1  UNL1        0.0693
     66 H           9.4972    5.7379    0.0000 H       1  UNL1        0.2922
     67 H           2.0000   -2.6312    0.0000 H       1  UNL1        0.2095
     68 H           8.2700   -1.2512    0.0000 H       1  UNL1        0.0654
     69 H           5.4641   -1.2512    0.0000 H       1  UNL1        0.0654
     70 H           8.2700    0.3687    0.0000 H       1  UNL1        0.0626
     71 H           5.4641    0.3687    0.0000 H       1  UNL1        0.0626
     72 H           6.0331    5.7512    0.0000 H       1  UNL1        0.2922
@<TRIPOS>BOND
     1     1    18    1
     2     1    20    1
     3     2    25    1
     4     2    27    1
     5     3    16    1
     6     3    55    1
     7     4    17    1
     8     4    56    1
     9    19     5    1
    10     5    57    1
    11    27     6    1
    12     6    36    1
    13     7    22    1
    14     7    61    1
    15    23     8    1
    16     8    62    1
    17     9    24    1
    18     9    63    1
    19    10    28   ar
    20    10    34   ar
    21    11    26    1
    22    11    64    1
    23    12    29    1
    24    12    66    1
    25    13    30    1
    26    13    67    1
    27    14    33    1
    28    14    72    1
    29    15    35    2
    30    16    17    1
    31    16    18    1
    32    16    43    1
    33    17    19    1
    34    17    44    1
    35    18    21    1
    36    18    45    1
    37    19    20    1
    38    19    46    1
    39    20    26    1
    40    20    47    1
    41    21    28   ar
    42    21    29   ar
    43    22    23    1
    44    22    24    1
    45    22    48    1
    46    23    25    1
    47    23    49    1
    48    24    27    1
    49    24    50    1
    50    25    30    1
    51    25    51    1
    52    26    52    1
    53    26    53    1
    54    27    54    1
    55    28    31   ar
    56    29    32   ar
    57    30    58    1
    58    30    59    1
    59    31    33   ar
    60    31    35   ar
    61    32    33   ar
    62    32    60    1
    63    34    37   ar
    64    34    38    1
    65    35    37   ar
    66    36    39   ar
    67    36    40   ar
    68    37    65    1
    69    38    41   ar
    70    38    42   ar
    71    39    41   ar
    72    39    68    1
    73    40    42   ar
    74    40    69    1
    75    41    70    1
    76    42    71    1
