@<TRIPOS>MOLECULE
IMPHY007514
 39 42 0 0 0
SMALL
GASTEIGER

@<TRIPOS>ATOM
      1 O           5.5022   -1.0484    0.0000 O.3     1  UNL1       -0.4870
      2 O           5.5138    2.0209    0.0000 O.3     1  UNL1       -0.3862
      3 O           9.0744    0.7910    0.0000 O.3     1  UNL1       -0.4488
      4 O           9.0744   -0.8185    0.0000 O.3     1  UNL1       -0.4486
      5 O           7.2622   -2.0137    0.0000 O.3     1  UNL1       -0.4884
      6 O           7.2622    1.9863    0.0000 O.3     1  UNL1       -0.5029
      7 C           4.5961    0.5071    0.0000 C.3     1  UNL1        0.0486
      8 C           5.5022    1.0209    0.0000 C.3     1  UNL1        0.0972
      9 C           6.3961    0.4863    0.0000 C.ar    1  UNL1        0.0720
     10 C           4.5961   -0.5346    0.0000 C.3     1  UNL1        0.0992
     11 C           6.3961   -0.5137    0.0000 C.ar    1  UNL1        0.1750
     12 C           3.7320    1.0104    0.0000 C.ar    1  UNL1       -0.0383
     13 C           7.2622    0.9863    0.0000 C.ar    1  UNL1        0.1719
     14 C           7.2622   -1.0137    0.0000 C.ar    1  UNL1        0.2080
     15 C           8.1282    0.4863    0.0000 C.ar    1  UNL1        0.2116
     16 C           8.1282   -0.5137    0.0000 C.ar    1  UNL1        0.2149
     17 C           3.7359    2.0104    0.0000 C.ar    1  UNL1       -0.0581
     18 C           2.8641    0.5138    0.0000 C.ar    1  UNL1       -0.0581
     19 C           9.6580   -0.0137    0.0000 C.3     1  UNL1        0.2336
     20 C           2.8718    2.5137    0.0000 C.ar    1  UNL1       -0.0615
     21 C           2.0000    1.0171    0.0000 C.ar    1  UNL1       -0.0615
     22 C           2.0038    2.0171    0.0000 C.ar    1  UNL1       -0.0617
     23 C           8.1282   -2.5137    0.0000 C.3     1  UNL1        0.0791
     24 H           4.5997    1.1271    0.0000 H       1  UNL1        0.0411
     25 H           6.0433    1.3236    0.0000 H       1  UNL1        0.0653
     26 H           3.9853   -0.4285    0.0000 H       1  UNL1        0.0703
     27 H           4.3871   -1.1182    0.0000 H       1  UNL1        0.0703
     28 H           4.9804    2.3370    0.0000 H       1  UNL1        0.2103
     29 H           4.2740    2.3183    0.0000 H       1  UNL1        0.0620
     30 H           2.8617   -0.1062    0.0000 H       1  UNL1        0.0620
     31 H          10.1189   -0.4285    0.0000 H       1  UNL1        0.1166
     32 H          10.1189    0.4010    0.0000 H       1  UNL1        0.1166
     33 H           2.8742    3.1337    0.0000 H       1  UNL1        0.0618
     34 H           1.4619    0.7092    0.0000 H       1  UNL1        0.0618
     35 H           7.7991    2.2963    0.0000 H       1  UNL1        0.2923
     36 H           1.4681    2.3292    0.0000 H       1  UNL1        0.0618
     37 H           7.8182   -3.0507    0.0000 H       1  UNL1        0.0660
     38 H           8.6651   -2.8237    0.0000 H       1  UNL1        0.0660
     39 H           8.4382   -1.9768    0.0000 H       1  UNL1        0.0660
@<TRIPOS>BOND
     1     1    10    1
     2     1    11    1
     3     2     8    1
     4     2    28    1
     5     3    15    1
     6     3    19    1
     7     4    16    1
     8     4    19    1
     9     5    14    1
    10     5    23    1
    11     6    13    1
    12     6    35    1
    13     7     8    1
    14     7    10    1
    15     7    12    1
    16     7    24    1
    17     8     9    1
    18     8    25    1
    19     9    11   ar
    20     9    13   ar
    21    10    26    1
    22    10    27    1
    23    11    14   ar
    24    12    17   ar
    25    12    18   ar
    26    13    15   ar
    27    14    16   ar
    28    15    16   ar
    29    17    20   ar
    30    17    29    1
    31    18    21   ar
    32    18    30    1
    33    19    31    1
    34    19    32    1
    35    20    22   ar
    36    20    33    1
    37    21    22   ar
    38    21    34    1
    39    22    36    1
    40    23    37    1
    41    23    38    1
    42    23    39    1
