@<TRIPOS>MOLECULE
IMPHY002045
 61 60 0 0 0
SMALL
GASTEIGER

@<TRIPOS>ATOM
      1 O           5.1350    0.8450    0.0000 O.3     1  UNL1       -0.3892
      2 O           4.2690   -1.6550    0.0000 O.3     1  UNL1       -0.3876
      3 O           2.5369    1.3450    0.0000 O.3     1  UNL1       -0.3934
      4 N           2.5369   -0.6550    0.0000 N.3     1  UNL1       -0.3233
      5 C           6.8671   -0.1550    0.0000 C.3     1  UNL1       -0.0506
      6 C           6.0010   -0.6550    0.0000 C.3     1  UNL1       -0.0244
      7 C           7.7331   -0.6550    0.0000 C.3     1  UNL1       -0.0530
      8 C           5.1350   -0.1550    0.0000 C.3     1  UNL1        0.0826
      9 C           8.5991   -0.1550    0.0000 C.3     1  UNL1       -0.0531
     10 C           9.4651   -0.6550    0.0000 C.3     1  UNL1       -0.0531
     11 C          10.3312   -0.1550    0.0000 C.3     1  UNL1       -0.0531
     12 C           4.2690   -0.6550    0.0000 C.3     1  UNL1        0.0982
     13 C          11.1972   -0.6550    0.0000 C.3     1  UNL1       -0.0531
     14 C          12.0632   -0.1550    0.0000 C.3     1  UNL1       -0.0531
     15 C          12.9292   -0.6550    0.0000 C.3     1  UNL1       -0.0531
     16 CA          3.4030   -0.1550    0.0000 C.3     1  UNL1        0.0570
     17 C          13.7953   -0.1550    0.0000 C.3     1  UNL1       -0.0531
     18 C          14.6613   -0.6550    0.0000 C.3     1  UNL1       -0.0531
     19 C          15.5273   -0.1550    0.0000 C.3     1  UNL1       -0.0533
     20 C           3.4030    0.8450    0.0000 C.3     1  UNL1        0.0618
     21 C          16.3933   -0.6550    0.0000 C.3     1  UNL1       -0.0559
     22 C          17.2594   -0.1550    0.0000 C.3     1  UNL1       -0.0653
     23 H           7.2656    0.3199    0.0000 H       1  UNL1        0.0266
     24 H           6.4685    0.3199    0.0000 H       1  UNL1        0.0266
     25 H           5.6025   -1.1300    0.0000 H       1  UNL1        0.0291
     26 H           6.3996   -1.1300    0.0000 H       1  UNL1        0.0291
     27 H           7.3346   -1.1300    0.0000 H       1  UNL1        0.0265
     28 H           8.1316   -1.1300    0.0000 H       1  UNL1        0.0265
     29 H           5.6720    0.1550    0.0000 H       1  UNL1        0.0619
     30 H           8.9976    0.3199    0.0000 H       1  UNL1        0.0265
     31 H           8.2006    0.3199    0.0000 H       1  UNL1        0.0265
     32 H           9.0666   -1.1300    0.0000 H       1  UNL1        0.0265
     33 H           9.8637   -1.1300    0.0000 H       1  UNL1        0.0265
     34 H          10.7297    0.3199    0.0000 H       1  UNL1        0.0265
     35 H           9.9326    0.3199    0.0000 H       1  UNL1        0.0265
     36 H           4.8059   -0.9650    0.0000 H       1  UNL1        0.0635
     37 H          10.7987   -1.1300    0.0000 H       1  UNL1        0.0265
     38 H          11.5957   -1.1300    0.0000 H       1  UNL1        0.0265
     39 H          12.4617    0.3199    0.0000 H       1  UNL1        0.0265
     40 H          11.6647    0.3199    0.0000 H       1  UNL1        0.0265
     41 H          12.5307   -1.1300    0.0000 H       1  UNL1        0.0265
     42 H          13.3278   -1.1300    0.0000 H       1  UNL1        0.0265
     43 HA          3.4030   -0.7750    0.0000 H       1  UNL1        0.0507
     44 H          14.1938    0.3199    0.0000 H       1  UNL1        0.0265
     45 H          13.3967    0.3199    0.0000 H       1  UNL1        0.0265
     46 H          14.2628   -1.1300    0.0000 H       1  UNL1        0.0265
     47 H          15.0598   -1.1300    0.0000 H       1  UNL1        0.0265
     48 H          15.9258    0.3199    0.0000 H       1  UNL1        0.0265
     49 H          15.1288    0.3199    0.0000 H       1  UNL1        0.0265
     50 H1          4.0135    0.7373    0.0000 H       1  UNL1        0.0573
     51 H2          3.6150    1.4276    0.0000 H       1  UNL1        0.0573
     52 H           5.6720    1.1550    0.0000 H       1  UNL1        0.2099
     53 H           3.7320   -1.9650    0.0000 H       1  UNL1        0.2100
     54 H1          2.0000   -0.3450    0.0000 H       1  UNL1        0.1186
     55 H2          2.5369   -1.2750    0.0000 H       1  UNL1        0.1186
     56 H          15.9948   -1.1300    0.0000 H       1  UNL1        0.0263
     57 H          16.7919   -1.1300    0.0000 H       1  UNL1        0.0263
     58 H          17.5694   -0.6919    0.0000 H       1  UNL1        0.0230
     59 H          17.7963    0.1550    0.0000 H       1  UNL1        0.0230
     60 H          16.9494    0.3819    0.0000 H       1  UNL1        0.0230
     61 H           2.5369    1.9650    0.0000 H       1  UNL1        0.2095
@<TRIPOS>BOND
     1     8     1    1
     2     1    52    1
     3    12     2    1
     4     2    53    1
     5     3    20    1
     6     3    61    1
     7    16     4    1
     8     4    54    1
     9     4    55    1
    10     5     6    1
    11     5     7    1
    12     5    23    1
    13     5    24    1
    14     6     8    1
    15     6    25    1
    16     6    26    1
    17     7     9    1
    18     7    27    1
    19     7    28    1
    20     8    12    1
    21     8    29    1
    22     9    10    1
    23     9    30    1
    24     9    31    1
    25    10    11    1
    26    10    32    1
    27    10    33    1
    28    11    13    1
    29    11    34    1
    30    11    35    1
    31    12    16    1
    32    12    36    1
    33    13    14    1
    34    13    37    1
    35    13    38    1
    36    14    15    1
    37    14    39    1
    38    14    40    1
    39    15    17    1
    40    15    41    1
    41    15    42    1
    42    16    20    1
    43    16    43    1
    44    17    18    1
    45    17    44    1
    46    17    45    1
    47    18    19    1
    48    18    46    1
    49    18    47    1
    50    19    21    1
    51    19    48    1
    52    19    49    1
    53    20    50    1
    54    20    51    1
    55    21    22    1
    56    21    56    1
    57    21    57    1
    58    22    58    1
    59    22    59    1
    60    22    60    1
