@<TRIPOS>MOLECULE
IMPHY007806
 27 27 0 0 0
SMALL
GASTEIGER

@<TRIPOS>ATOM
      1 O           2.0000    1.0000    0.0000 O.2     1  UNL1       -0.2699
      2 N           3.7320    1.0000    0.0000 N.am    1  UNL1       -0.2980
      3 N           3.7320   -2.0000    0.0000 N.ar    1  UNL1       -0.2625
      4 C           3.7320    2.0000    0.0000 C.3     1  UNL1        0.0121
      5 C           4.5981    0.5000    0.0000 C.3     1  UNL1        0.0121
      6 C           2.8660    0.5000    0.0000 C.2     1  UNL1        0.2481
      7 C           4.5981    2.5000    0.0000 C.3     1  UNL1       -0.0493
      8 C           5.4641    1.0000    0.0000 C.3     1  UNL1       -0.0493
      9 C           2.8660   -0.5000    0.0000 C.ar    1  UNL1        0.0550
     10 C           2.0000   -1.0000    0.0000 C.ar    1  UNL1       -0.0467
     11 C           3.7320   -1.0000    0.0000 C.ar    1  UNL1        0.0397
     12 C           2.0000   -2.0000    0.0000 C.ar    1  UNL1       -0.0429
     13 C           2.8660   -2.5000    0.0000 C.ar    1  UNL1        0.0276
     14 H           4.1996    0.0251    0.0000 H       1  UNL1        0.0462
     15 H           4.9966    0.0251    0.0000 H       1  UNL1        0.0462
     16 H           3.5200    2.5826    0.0000 H       1  UNL1        0.0462
     17 H           3.1215    1.8923    0.0000 H       1  UNL1        0.0462
     18 H           5.7741    0.4631    0.0000 H       1  UNL1        0.0245
     19 H           6.0010    1.3100    0.0000 H       1  UNL1        0.0245
     20 H           5.1541    1.5369    0.0000 H       1  UNL1        0.0245
     21 H           4.9081    1.9631    0.0000 H       1  UNL1        0.0245
     22 H           5.1350    2.8100    0.0000 H       1  UNL1        0.0245
     23 H           4.2881    3.0369    0.0000 H       1  UNL1        0.0245
     24 H           1.4631   -0.6900    0.0000 H       1  UNL1        0.0626
     25 H           4.2690   -0.6900    0.0000 H       1  UNL1        0.0837
     26 H           1.4631   -2.3100    0.0000 H       1  UNL1        0.0633
     27 H           2.8660   -3.1200    0.0000 H       1  UNL1        0.0829
@<TRIPOS>BOND
     1     1     6    2
     2     2     4    1
     3     2     5    1
     4     2     6   am
     5     3    11   ar
     6     3    13   ar
     7     4     7    1
     8     4    16    1
     9     4    17    1
    10     5     8    1
    11     5    14    1
    12     5    15    1
    13     6     9    1
    14     7    21    1
    15     7    22    1
    16     7    23    1
    17     8    18    1
    18     8    19    1
    19     8    20    1
    20     9    10   ar
    21     9    11   ar
    22    10    12   ar
    23    10    24    1
    24    11    25    1
    25    12    13   ar
    26    12    26    1
    27    13    27    1
