@<TRIPOS>MOLECULE
IMPHY010063
 217 228 0 0 0
SMALL
GASTEIGER

@<TRIPOS>ATOM
      1 O          12.6203    7.9715    0.0000 O.3     1  UNL1       -0.3450
      2 O           9.4944    5.9176    0.0000 O.2     1  UNL1       -0.2968
      3 O          11.0912    9.2034    0.0000 O.3     1  UNL1       -0.3642
      4 O          11.1972   -0.2726    0.0000 O.3     1  UNL1       -0.3454
      5 O          10.3312   -1.7726    0.0000 O.3     1  UNL1       -0.3405
      6 O          15.2548   11.0708    0.0000 O.3     1  UNL1       -0.3484
      7 O           9.4651    0.7274    0.0000 O.3     1  UNL1       -0.3841
      8 O           7.7331   -0.2726    0.0000 O.3     1  UNL1       -0.3864
      9 O           7.7331   -2.2726    0.0000 O.3     1  UNL1       -0.3401
     10 O          10.3312   -3.7726    0.0000 O.3     1  UNL1       -0.3924
     11 O          16.7574   10.2093    0.0000 O.3     1  UNL1       -0.3405
     12 O           8.5991   -3.7726    0.0000 O.3     1  UNL1       -0.3405
     13 O          16.2496   12.8059    0.0000 O.3     1  UNL1       -0.3841
     14 O          18.2496   12.8118    0.0000 O.3     1  UNL1       -0.3864
     15 O           6.0010   -3.2726    0.0000 O.3     1  UNL1       -0.3841
     16 O          19.2548   11.0828    0.0000 O.3     1  UNL1       -0.3865
     17 O           6.0010   -5.2726    0.0000 O.3     1  UNL1       -0.3864
     18 O           7.7331   -6.2726    0.0000 O.3     1  UNL1       -0.3401
     19 O          19.2600    9.3508    0.0000 O.3     1  UNL1       -0.3924
     20 O          10.3312   -4.7726    0.0000 O.3     1  UNL1       -0.3924
     21 O           6.0010   -6.2726    0.0000 O.3     1  UNL1       -0.3405
     22 O           7.7331   -8.2726    0.0000 O.3     1  UNL1       -0.3378
     23 O           6.0010   -9.2726    0.0000 O.3     1  UNL1       -0.3401
     24 O           4.2690   -8.2726    0.0000 O.3     1  UNL1       -0.3865
     25 O           8.0339   -9.9783    0.0000 O.3     1  UNL1       -0.3431
     26 O           4.2690   -5.2726    0.0000 O.3     1  UNL1       -0.3924
     27 O           4.2690   -9.2726    0.0000 O.3     1  UNL1       -0.3461
     28 O           9.7027   -7.9253    0.0000 O.3     1  UNL1       -0.3841
     29 O          10.9883   -9.4574    0.0000 O.3     1  UNL1       -0.3401
     30 O           6.0010  -11.2726    0.0000 O.3     1  UNL1       -0.3841
     31 O          10.3043  -11.3367    0.0000 O.3     1  UNL1       -0.3866
     32 O           4.2690  -12.2726    0.0000 O.3     1  UNL1       -0.3864
     33 O           2.5369  -11.2726    0.0000 O.3     1  UNL1       -0.3869
     34 O          12.6159  -10.0498    0.0000 O.3     1  UNL1       -0.3431
     35 O          10.3043  -11.3367    0.0000 O.3     1  UNL1       -0.3841
     36 O          11.5899  -12.8688    0.0000 O.3     1  UNL1       -0.3864
     37 O          13.5594  -12.5215    0.0000 O.3     1  UNL1       -0.3866
     38 C          12.0944    5.4276    0.0000 C.3     1  UNL1       -0.0231
     39 C          11.2264    5.9243    0.0000 C.3     1  UNL1        0.0349
     40 C          12.0983    4.4276    0.0000 C.3     1  UNL1       -0.0335
     41 C          11.4319    6.8969    0.0000 C.3     1  UNL1        0.0052
     42 C          11.2342    3.9243    0.0000 C.3     1  UNL1       -0.0256
     43 C          11.2221    2.8828    0.0000 C.3     1  UNL1       -0.0256
     44 C          12.4202    7.0038    0.0000 C.3     1  UNL1        0.0664
     45 C          12.8288    6.0976    0.0000 C.3     1  UNL1       -0.0222
     46 C          12.1222    2.3585    0.0000 C.3     1  UNL1       -0.0330
     47 C          11.0296    7.7995    0.0000 C.3     1  UNL1        0.0162
     48 C          10.3662    4.4210    0.0000 C.3     1  UNL1        0.0100
     49 C          13.0102    3.9243    0.0000 C.3     1  UNL1       -0.0494
     50 C          10.3624    5.4210    0.0000 C.2     1  UNL1        0.1401
     51 C          13.0222    2.8828    0.0000 C.3     1  UNL1       -0.0494
     52 C          11.7626    8.4623    0.0000 C.3     1  UNL1        0.1704
     53 C          10.2722    2.3585    0.0000 C.3     1  UNL1       -0.0448
     54 C          10.3585    6.4210    0.0000 C.3     1  UNL1       -0.0522
     55 C          12.1347    1.2735    0.0000 C.3     1  UNL1       -0.0232
     56 C          10.3580    3.3861    0.0000 C.3     1  UNL1       -0.0590
     57 C          10.2597    1.2735    0.0000 C.3     1  UNL1       -0.0260
     58 C          11.1972    0.7274    0.0000 C.3     1  UNL1        0.0621
     59 C          10.0512    8.0062    0.0000 C.3     1  UNL1       -0.0572
     60 C          12.2600    9.3298    0.0000 C.3     1  UNL1        0.0018
     61 C          13.2600    9.3328    0.0000 C.3     1  UNL1       -0.0435
     62 C          13.7574   10.2003    0.0000 C.3     1  UNL1       -0.0201
     63 C          10.3312   -0.7726    0.0000 C.3     1  UNL1        0.1882
     64 C           9.4651   -0.2726    0.0000 C.3     1  UNL1        0.1341
     65 C          14.7574   10.2033    0.0000 C.3     1  UNL1        0.0533
     66 C          13.2548   11.0649    0.0000 C.3     1  UNL1       -0.0603
     67 C           8.5991   -0.7726    0.0000 C.3     1  UNL1        0.1144
     68 C           9.4651   -2.2726    0.0000 C.3     1  UNL1        0.1134
     69 C           8.5991   -1.7726    0.0000 C.3     1  UNL1        0.1184
     70 C           9.4651   -3.2726    0.0000 C.3     1  UNL1        0.0730
     71 C          16.2548   11.0738    0.0000 C.3     1  UNL1        0.1879
     72 C           7.7331   -3.2726    0.0000 C.3     1  UNL1        0.1884
     73 C          16.7522   11.9413    0.0000 C.3     1  UNL1        0.1341
     74 C          17.7522   11.9443    0.0000 C.3     1  UNL1        0.1141
     75 C           6.8671   -3.7726    0.0000 C.3     1  UNL1        0.1341
     76 C          17.7574   10.2123    0.0000 C.3     1  UNL1        0.1130
     77 C          18.2548   11.0798    0.0000 C.3     1  UNL1        0.1119
     78 C           6.8671   -4.7726    0.0000 C.3     1  UNL1        0.1144
     79 C           8.5991   -4.7726    0.0000 C.3     1  UNL1        0.1134
     80 C           7.7331   -5.2726    0.0000 C.3     1  UNL1        0.1184
     81 C          18.2600    9.3478    0.0000 C.3     1  UNL1        0.0730
     82 C           9.4651   -5.2726    0.0000 C.3     1  UNL1        0.0730
     83 C           6.8671   -6.7726    0.0000 C.3     1  UNL1        0.1888
     84 C           6.8671   -7.7726    0.0000 C.3     1  UNL1        0.1410
     85 C           6.0010   -8.2726    0.0000 C.3     1  UNL1        0.1209
     86 C           5.1350   -6.7726    0.0000 C.3     1  UNL1        0.1130
     87 C           5.1350   -7.7726    0.0000 C.3     1  UNL1        0.1123
     88 C           4.2690   -6.2726    0.0000 C.3     1  UNL1        0.0730
     89 C           8.3760   -9.0386    0.0000 C.3     1  UNL1        0.1884
     90 C           5.1350   -9.7726    0.0000 C.3     1  UNL1        0.1880
     91 C           9.3607   -8.8650    0.0000 C.3     1  UNL1        0.1345
     92 C          10.0035   -9.6310    0.0000 C.3     1  UNL1        0.1205
     93 C           5.1350  -10.7726    0.0000 C.3     1  UNL1        0.1341
     94 C           8.6767  -10.7443    0.0000 C.3     1  UNL1        0.0873
     95 C           9.6615  -10.5706    0.0000 C.3     1  UNL1        0.1098
     96 C           4.2690  -11.2726    0.0000 C.3     1  UNL1        0.1137
     97 C           3.4030   -9.7726    0.0000 C.3     1  UNL1        0.0792
     98 C           3.4030  -10.7726    0.0000 C.3     1  UNL1        0.1069
     99 C           8.3347  -11.6840    0.0000 C.3     1  UNL1       -0.0361
    100 C          11.6311  -10.2234    0.0000 C.3     1  UNL1        0.1883
    101 C          11.2890  -11.1631    0.0000 C.3     1  UNL1        0.1341
    102 C          11.9318  -11.9291    0.0000 C.3     1  UNL1        0.1140
    103 C          13.2587  -10.8158    0.0000 C.3     1  UNL1        0.0873
    104 C          12.9166  -11.7555    0.0000 C.3     1  UNL1        0.1095
    105 C          14.2435  -10.6422    0.0000 C.3     1  UNL1       -0.0361
    106 H          12.6621    5.1784    0.0000 H       1  UNL1        0.0314
    107 H          12.6316    4.7438    0.0000 H       1  UNL1        0.0307
    108 H          10.8154    6.8316    0.0000 H       1  UNL1        0.0339
    109 H          11.7699    3.6122    0.0000 H       1  UNL1        0.0313
    110 H          13.0365    7.0718    0.0000 H       1  UNL1        0.0600
    111 H          13.1962    5.5981    0.0000 H       1  UNL1        0.0293
    112 H          13.3641    6.4104    0.0000 H       1  UNL1        0.0293
    113 H          12.6615    2.0526    0.0000 H       1  UNL1        0.0307
    114 H          10.6398    7.3174    0.0000 H       1  UNL1        0.0354
    115 H           9.7552    4.5263    0.0000 H       1  UNL1        0.0345
    116 H          10.1564    3.8376    0.0000 H       1  UNL1        0.0345
    117 H          13.6222    3.8253    0.0000 H       1  UNL1        0.0268
    118 H          13.2125    4.5104    0.0000 H       1  UNL1        0.0268
    119 H          13.2380    2.3015    0.0000 H       1  UNL1        0.0268
    120 H          13.6318    2.9959    0.0000 H       1  UNL1        0.0268
    121 H          10.0699    2.9445    0.0000 H       1  UNL1        0.0271
    122 H           9.6602    2.2594    0.0000 H       1  UNL1        0.0271
    123 H          10.6664    6.9591    0.0000 H       1  UNL1        0.0239
    124 H           9.8204    6.7289    0.0000 H       1  UNL1        0.0239
    125 H          10.0506    5.8828    0.0000 H       1  UNL1        0.0239
    126 H          12.3505    0.6923    0.0000 H       1  UNL1        0.0293
    127 H          12.7443    1.3867    0.0000 H       1  UNL1        0.0293
    128 H          10.6701    3.9218    0.0000 H       1  UNL1        0.0235
    129 H           9.8223    3.6982    0.0000 H       1  UNL1        0.0235
    130 H          10.0460    2.8504    0.0000 H       1  UNL1        0.0235
    131 H           9.6501    1.3867    0.0000 H       1  UNL1        0.0290
    132 H          10.0439    0.6923    0.0000 H       1  UNL1        0.0290
    133 H          10.6597    0.4185    0.0000 H       1  UNL1        0.0597
    134 H          10.1793    8.6128    0.0000 H       1  UNL1        0.0234
    135 H           9.4446    8.1343    0.0000 H       1  UNL1        0.0234
    136 H           9.9231    7.3996    0.0000 H       1  UNL1        0.0234
    137 H          12.3658    9.9407    0.0000 H       1  UNL1        0.0317
    138 H          11.6767    9.5401    0.0000 H       1  UNL1        0.0317
    139 H          11.2811    9.7937    0.0000 H       1  UNL1        0.2128
    140 H          13.1542    8.7219    0.0000 H       1  UNL1        0.0270
    141 H          13.8432    9.1225    0.0000 H       1  UNL1        0.0270
    142 H          13.1374   10.1985    0.0000 H       1  UNL1        0.0320
    143 H          10.3312   -0.1526    0.0000 H       1  UNL1        0.0937
    144 H           8.9282    0.0374    0.0000 H       1  UNL1        0.0671
    145 H          14.6516    9.5924    0.0000 H       1  UNL1        0.0563
    146 H          15.3406    9.9930    0.0000 H       1  UNL1        0.0563
    147 H          13.7908   11.3765    0.0000 H       1  UNL1        0.0233
    148 H          12.9432   11.6009    0.0000 H       1  UNL1        0.0233
    149 H          12.7188   10.7532    0.0000 H       1  UNL1        0.0233
    150 H           8.0622   -1.0826    0.0000 H       1  UNL1        0.0648
    151 H          10.0021   -2.5826    0.0000 H       1  UNL1        0.0647
    152 H           8.0622   -1.4626    0.0000 H       1  UNL1        0.0651
    153 H           8.9282    1.0374    0.0000 H       1  UNL1        0.2101
    154 H           8.8546   -3.1649    0.0000 H       1  UNL1        0.0584
    155 H           9.2531   -3.8552    0.0000 H       1  UNL1        0.0584
    156 H           7.7331    0.3474    0.0000 H       1  UNL1        0.2100
    157 H          15.9464   10.5360    0.0000 H       1  UNL1        0.0937
    158 H           7.1962   -2.9626    0.0000 H       1  UNL1        0.0938
    159 H          16.1322   11.9395    0.0000 H       1  UNL1        0.0671
    160 H          10.8681   -3.4626    0.0000 H       1  UNL1        0.2095
    161 H          17.4406   12.4803    0.0000 H       1  UNL1        0.0648
    162 H           6.3301   -4.0826    0.0000 H       1  UNL1        0.0671
    163 H          17.4490    9.6744    0.0000 H       1  UNL1        0.0647
    164 H          18.5632   11.6177    0.0000 H       1  UNL1        0.0647
    165 H           7.4040   -4.4626    0.0000 H       1  UNL1        0.0648
    166 H          16.5580   13.3437    0.0000 H       1  UNL1        0.2101
    167 H           9.1360   -4.4626    0.0000 H       1  UNL1        0.0647
    168 H           8.2700   -5.5826    0.0000 H       1  UNL1        0.0651
    169 H          17.6780    9.1340    0.0000 H       1  UNL1        0.0584
    170 H          18.3695    8.7375    0.0000 H       1  UNL1        0.0584
    171 H          18.8696   12.8137    0.0000 H       1  UNL1        0.2100
    172 H           6.0010   -2.6526    0.0000 H       1  UNL1        0.2101
    173 H          19.5632   11.6206    0.0000 H       1  UNL1        0.2100
    174 H           9.0666   -5.7475    0.0000 H       1  UNL1        0.0584
    175 H           9.8637   -5.7475    0.0000 H       1  UNL1        0.0584
    176 H           5.4641   -4.9626    0.0000 H       1  UNL1        0.2100
    177 H          19.5716    8.8147    0.0000 H       1  UNL1        0.2095
    178 H           7.4040   -7.0826    0.0000 H       1  UNL1        0.0938
    179 H          10.8681   -5.0826    0.0000 H       1  UNL1        0.2095
    180 H           6.8671   -8.3926    0.0000 H       1  UNL1        0.0675
    181 H           5.4641   -8.5826    0.0000 H       1  UNL1        0.0651
    182 H           5.1350   -6.1526    0.0000 H       1  UNL1        0.0647
    183 H           4.5981   -7.4626    0.0000 H       1  UNL1        0.0647
    184 H           3.6584   -6.1649    0.0000 H       1  UNL1        0.0584
    185 H           4.0569   -6.8552    0.0000 H       1  UNL1        0.0584
    186 H           8.5880   -8.4559    0.0000 H       1  UNL1        0.0938
    187 H           3.7320   -7.9626    0.0000 H       1  UNL1        0.2100
    188 H           5.1350   -9.1526    0.0000 H       1  UNL1        0.0937
    189 H           9.9713   -8.7573    0.0000 H       1  UNL1        0.0671
    190 H          10.4020  -10.1060    0.0000 H       1  UNL1        0.0651
    191 H           5.1350  -11.3926    0.0000 H       1  UNL1        0.0671
    192 H           3.7320   -4.9626    0.0000 H       1  UNL1        0.2095
    193 H           8.0661  -10.8520    0.0000 H       1  UNL1        0.0621
    194 H          10.2721  -10.4630    0.0000 H       1  UNL1        0.0646
    195 H           3.7320  -11.5826    0.0000 H       1  UNL1        0.0647
    196 H           9.3042   -7.4503    0.0000 H       1  UNL1        0.2101
    197 H           3.1909   -9.1900    0.0000 H       1  UNL1        0.0587
    198 H           2.7924   -9.8802    0.0000 H       1  UNL1        0.0587
    199 H           2.8660  -10.4626    0.0000 H       1  UNL1        0.0643
    200 H           7.7520  -11.4720    0.0000 H       1  UNL1        0.0255
    201 H           8.1226  -12.2666    0.0000 H       1  UNL1        0.0255
    202 H           8.9173  -11.8961    0.0000 H       1  UNL1        0.0255
    203 H           6.0010  -11.8926    0.0000 H       1  UNL1        0.2101
    204 H          11.0205  -10.3311    0.0000 H       1  UNL1        0.0938
    205 H          10.0923  -11.9193    0.0000 H       1  UNL1        0.2100
    206 H           3.7320  -12.5826    0.0000 H       1  UNL1        0.2100
    207 H          11.0770  -11.7457    0.0000 H       1  UNL1        0.0671
    208 H           2.0000  -10.9626    0.0000 H       1  UNL1        0.2100
    209 H          12.3304  -12.4041    0.0000 H       1  UNL1        0.0648
    210 H          13.4707  -10.2332    0.0000 H       1  UNL1        0.0621
    211 H          13.5272  -11.6478    0.0000 H       1  UNL1        0.0646
    212 H          10.0923  -11.9193    0.0000 H       1  UNL1        0.2101
    213 H          14.3511  -11.2527    0.0000 H       1  UNL1        0.0255
    214 H          14.8540  -10.5345    0.0000 H       1  UNL1        0.0255
    215 H          14.1358  -10.0316    0.0000 H       1  UNL1        0.0255
    216 H          11.9884  -13.3437    0.0000 H       1  UNL1        0.2100
    217 H          14.1700  -12.4139    0.0000 H       1  UNL1        0.2100
@<TRIPOS>BOND
     1     1    44    1
     2     1    52    1
     3     2    50    2
     4     3    52    1
     5     3   139    1
     6     4    58    1
     7     4    63    1
     8     5    63    1
     9     5    68    1
    10     6    65    1
    11     6    71    1
    12     7    64    1
    13     7   153    1
    14     8    67    1
    15     8   156    1
    16     9    69    1
    17     9    72    1
    18    10    70    1
    19    10   160    1
    20    11    71    1
    21    11    76    1
    22    12    72    1
    23    12    79    1
    24    13    73    1
    25    13   166    1
    26    14    74    1
    27    14   171    1
    28    15    75    1
    29    15   172    1
    30    16    77    1
    31    16   173    1
    32    17    78    1
    33    17   176    1
    34    18    80    1
    35    18    83    1
    36    19    81    1
    37    19   177    1
    38    20    82    1
    39    20   179    1
    40    21    83    1
    41    21    86    1
    42    22    84    1
    43    22    89    1
    44    23    85    1
    45    23    90    1
    46    24    87    1
    47    24   187    1
    48    25    89    1
    49    25    94    1
    50    26    88    1
    51    26   192    1
    52    27    90    1
    53    27    97    1
    54    28    91    1
    55    28   196    1
    56    29    92    1
    57    29   100    1
    58    30    93    1
    59    30   203    1
    60    31    95    1
    61    31   205    1
    62    32    96    1
    63    32   206    1
    64    33    98    1
    65    33   208    1
    66    34   100    1
    67    34   103    1
    68    35   101    1
    69    35   212    1
    70    36   102    1
    71    36   216    1
    72    37   104    1
    73    37   217    1
    74    38    39    1
    75    38    40    1
    76    38    45    1
    77    38   106    1
    78    39    41    1
    79    39    50    1
    80    39    54    1
    81    40    42    1
    82    40    49    1
    83    40   107    1
    84    41    44    1
    85    41    47    1
    86    41   108    1
    87    42    43    1
    88    42    48    1
    89    42   109    1
    90    43    46    1
    91    43    53    1
    92    43    56    1
    93    44    45    1
    94    44   110    1
    95    45   111    1
    96    45   112    1
    97    46    51    1
    98    46    55    1
    99    46   113    1
   100    47    52    1
   101    47    59    1
   102    47   114    1
   103    48    50    1
   104    48   115    1
   105    48   116    1
   106    49    51    1
   107    49   117    1
   108    49   118    1
   109    51   119    1
   110    51   120    1
   111    52    60    1
   112    53    57    1
   113    53   121    1
   114    53   122    1
   115    54   123    1
   116    54   124    1
   117    54   125    1
   118    55    58    1
   119    55   126    1
   120    55   127    1
   121    56   128    1
   122    56   129    1
   123    56   130    1
   124    57    58    1
   125    57   131    1
   126    57   132    1
   127    58   133    1
   128    59   134    1
   129    59   135    1
   130    59   136    1
   131    60    61    1
   132    60   137    1
   133    60   138    1
   134    61    62    1
   135    61   140    1
   136    61   141    1
   137    62    65    1
   138    62    66    1
   139    62   142    1
   140    63    64    1
   141    63   143    1
   142    64    67    1
   143    64   144    1
   144    65   145    1
   145    65   146    1
   146    66   147    1
   147    66   148    1
   148    66   149    1
   149    67    69    1
   150    67   150    1
   151    68    69    1
   152    68    70    1
   153    68   151    1
   154    69   152    1
   155    70   154    1
   156    70   155    1
   157    71    73    1
   158    71   157    1
   159    72    75    1
   160    72   158    1
   161    73    74    1
   162    73   159    1
   163    74    77    1
   164    74   161    1
   165    75    78    1
   166    75   162    1
   167    76    77    1
   168    76    81    1
   169    76   163    1
   170    77   164    1
   171    78    80    1
   172    78   165    1
   173    79    80    1
   174    79    82    1
   175    79   167    1
   176    80   168    1
   177    81   169    1
   178    81   170    1
   179    82   174    1
   180    82   175    1
   181    83    84    1
   182    83   178    1
   183    84    85    1
   184    84   180    1
   185    85    87    1
   186    85   181    1
   187    86    87    1
   188    86    88    1
   189    86   182    1
   190    87   183    1
   191    88   184    1
   192    88   185    1
   193    89    91    1
   194    89   186    1
   195    90    93    1
   196    90   188    1
   197    91    92    1
   198    91   189    1
   199    92    95    1
   200    92   190    1
   201    93    96    1
   202    93   191    1
   203    94    95    1
   204    94    99    1
   205    94   193    1
   206    95   194    1
   207    96    98    1
   208    96   195    1
   209    97    98    1
   210    97   197    1
   211    97   198    1
   212    98   199    1
   213    99   200    1
   214    99   201    1
   215    99   202    1
   216   100   101    1
   217   100   204    1
   218   101   102    1
   219   101   207    1
   220   102   104    1
   221   102   209    1
   222   103   104    1
   223   103   105    1
   224   103   210    1
   225   104   211    1
   226   105   213    1
   227   105   214    1
   228   105   215    1
