@<TRIPOS>MOLECULE
IMPHY007440
 29 30 0 0 0
SMALL
GASTEIGER

@<TRIPOS>ATOM
      1 O           2.8660   -1.0000    0.0000 O.3     1  UNL1       -0.4228
      2 O           4.5981   -1.0000    0.0000 O.2     1  UNL1       -0.2452
      3 C           4.5981    2.0000    0.0000 C.ar    1  UNL1       -0.0248
      4 C           5.4641    2.5000    0.0000 C.ar    1  UNL1       -0.0546
      5 C           3.7320    2.5000    0.0000 C.ar    1  UNL1       -0.0546
      6 C           4.5981    1.0000    0.0000 C.2     1  UNL1       -0.0478
      7 C           2.8660   -2.0000    0.0000 C.ar    1  UNL1        0.1319
      8 C           5.4641    3.5000    0.0000 C.ar    1  UNL1       -0.0612
      9 C           3.7320    3.5000    0.0000 C.ar    1  UNL1       -0.0612
     10 C           4.5981    4.0000    0.0000 C.ar    1  UNL1       -0.0617
     11 C           2.0000   -2.5000    0.0000 C.ar    1  UNL1       -0.0192
     12 C           3.7320   -2.5000    0.0000 C.ar    1  UNL1       -0.0192
     13 C           3.7320    0.5000    0.0000 C.2     1  UNL1        0.0235
     14 C           2.0000   -3.5000    0.0000 C.ar    1  UNL1       -0.0583
     15 C           3.7320   -3.5000    0.0000 C.ar    1  UNL1       -0.0583
     16 C           2.8660   -4.0000    0.0000 C.ar    1  UNL1       -0.0615
     17 C           3.7320   -0.5000    0.0000 C.2     1  UNL1        0.3372
     18 H           6.0010    2.1900    0.0000 H       1  UNL1        0.0623
     19 H           3.1951    2.1900    0.0000 H       1  UNL1        0.0623
     20 H           5.1350    0.6900    0.0000 H       1  UNL1        0.0626
     21 H           6.0010    3.8100    0.0000 H       1  UNL1        0.0618
     22 H           3.1951    3.8100    0.0000 H       1  UNL1        0.0618
     23 H           1.4631   -2.1900    0.0000 H       1  UNL1        0.0654
     24 H           4.2690   -2.1900    0.0000 H       1  UNL1        0.0654
     25 H           4.5981    4.6200    0.0000 H       1  UNL1        0.0618
     26 H           3.1951    0.8100    0.0000 H       1  UNL1        0.0689
     27 H           1.4631   -3.8100    0.0000 H       1  UNL1        0.0619
     28 H           4.2690   -3.8100    0.0000 H       1  UNL1        0.0619
     29 H           2.8660   -4.6200    0.0000 H       1  UNL1        0.0618
@<TRIPOS>BOND
     1     1     7    1
     2     1    17    1
     3     2    17    2
     4     3     4   ar
     5     3     5   ar
     6     3     6    1
     7     4     8   ar
     8     4    18    1
     9     5     9   ar
    10     5    19    1
    11     6    13    2
    12     6    20    1
    13     7    11   ar
    14     7    12   ar
    15     8    10   ar
    16     8    21    1
    17     9    10   ar
    18     9    22    1
    19    10    25    1
    20    11    14   ar
    21    11    23    1
    22    12    15   ar
    23    12    24    1
    24    13    17    1
    25    13    26    1
    26    14    16   ar
    27    14    27    1
    28    15    16   ar
    29    15    28    1
    30    16    29    1
