@<TRIPOS>MOLECULE
IMPHY012615
 58 57 0 0 0
SMALL
GASTEIGER

@<TRIPOS>ATOM
      1 C           6.3301   -0.7500    0.0000 C.3     1  UNL1       -0.0531
      2 C           5.4641   -0.2500    0.0000 C.3     1  UNL1       -0.0531
      3 C           7.1962   -0.2500    0.0000 C.3     1  UNL1       -0.0530
      4 C           4.5981   -0.7500    0.0000 C.3     1  UNL1       -0.0531
      5 C           8.0622   -0.7500    0.0000 C.3     1  UNL1       -0.0522
      6 C           3.7320   -0.2500    0.0000 C.3     1  UNL1       -0.0533
      7 C          14.9904    0.2500    0.0000 C.3     1  UNL1       -0.0530
      8 C           8.9282   -0.2500    0.0000 C.3     1  UNL1       -0.0422
      9 C          15.8564    0.7500    0.0000 C.3     1  UNL1       -0.0531
     10 C          14.1244    0.7500    0.0000 C.3     1  UNL1       -0.0522
     11 C          16.7224    0.2500    0.0000 C.3     1  UNL1       -0.0533
     12 C          13.2583    0.2500    0.0000 C.3     1  UNL1       -0.0422
     13 C           2.8660   -0.7500    0.0000 C.3     1  UNL1       -0.0559
     14 C           9.7942   -0.7500    0.0000 C.3     1  UNL1        0.0091
     15 C          17.5885    0.7500    0.0000 C.3     1  UNL1       -0.0559
     16 C          12.3923    0.7500    0.0000 C.3     1  UNL1        0.0091
     17 C           2.0000   -0.2500    0.0000 C.3     1  UNL1       -0.0653
     18 C          18.4545    0.2500    0.0000 C.3     1  UNL1       -0.0653
     19 C          10.6603   -0.2500    0.0000 C.1     1  UNL1       -0.1022
     20 C          11.5263    0.2500    0.0000 C.1     1  UNL1       -0.1022
     21 H           5.9316   -1.2250    0.0000 H       1  UNL1        0.0265
     22 H           6.7287   -1.2250    0.0000 H       1  UNL1        0.0265
     23 H           5.8626    0.2249    0.0000 H       1  UNL1        0.0265
     24 H           5.0656    0.2249    0.0000 H       1  UNL1        0.0265
     25 H           7.5947    0.2249    0.0000 H       1  UNL1        0.0265
     26 H           6.7976    0.2249    0.0000 H       1  UNL1        0.0265
     27 H           4.1996   -1.2250    0.0000 H       1  UNL1        0.0265
     28 H           4.9966   -1.2250    0.0000 H       1  UNL1        0.0265
     29 H           7.6636   -1.2250    0.0000 H       1  UNL1        0.0266
     30 H           8.4607   -1.2250    0.0000 H       1  UNL1        0.0266
     31 H           4.1306    0.2249    0.0000 H       1  UNL1        0.0265
     32 H           3.3335    0.2249    0.0000 H       1  UNL1        0.0265
     33 H          14.5919   -0.2249    0.0000 H       1  UNL1        0.0265
     34 H          15.3889   -0.2249    0.0000 H       1  UNL1        0.0265
     35 H          16.2549    1.2250    0.0000 H       1  UNL1        0.0265
     36 H          15.4579    1.2250    0.0000 H       1  UNL1        0.0265
     37 H           9.3267    0.2249    0.0000 H       1  UNL1        0.0274
     38 H           8.5297    0.2249    0.0000 H       1  UNL1        0.0274
     39 H          14.5229    1.2250    0.0000 H       1  UNL1        0.0266
     40 H          13.7258    1.2250    0.0000 H       1  UNL1        0.0266
     41 H          16.3239   -0.2249    0.0000 H       1  UNL1        0.0265
     42 H          17.1210   -0.2249    0.0000 H       1  UNL1        0.0265
     43 H          12.8598   -0.2249    0.0000 H       1  UNL1        0.0274
     44 H          13.6569   -0.2249    0.0000 H       1  UNL1        0.0274
     45 H           2.4675   -1.2250    0.0000 H       1  UNL1        0.0263
     46 H           3.2646   -1.2250    0.0000 H       1  UNL1        0.0263
     47 H           9.3957   -1.2250    0.0000 H       1  UNL1        0.0397
     48 H          10.1928   -1.2250    0.0000 H       1  UNL1        0.0397
     49 H          17.9870    1.2250    0.0000 H       1  UNL1        0.0263
     50 H          17.1899    1.2250    0.0000 H       1  UNL1        0.0263
     51 H          12.7908    1.2250    0.0000 H       1  UNL1        0.0397
     52 H          11.9938    1.2250    0.0000 H       1  UNL1        0.0397
     53 H           2.3100    0.2869    0.0000 H       1  UNL1        0.0230
     54 H           1.4631    0.0600    0.0000 H       1  UNL1        0.0230
     55 H           1.6900   -0.7869    0.0000 H       1  UNL1        0.0230
     56 H          18.1445   -0.2869    0.0000 H       1  UNL1        0.0230
     57 H          18.9914   -0.0600    0.0000 H       1  UNL1        0.0230
     58 H          18.7645    0.7869    0.0000 H       1  UNL1        0.0230
@<TRIPOS>BOND
     1     1     2    1
     2     1     3    1
     3     1    21    1
     4     1    22    1
     5     2     4    1
     6     2    23    1
     7     2    24    1
     8     3     5    1
     9     3    25    1
    10     3    26    1
    11     4     6    1
    12     4    27    1
    13     4    28    1
    14     5     8    1
    15     5    29    1
    16     5    30    1
    17     6    13    1
    18     6    31    1
    19     6    32    1
    20     7     9    1
    21     7    10    1
    22     7    33    1
    23     7    34    1
    24     8    14    1
    25     8    37    1
    26     8    38    1
    27     9    11    1
    28     9    35    1
    29     9    36    1
    30    10    12    1
    31    10    39    1
    32    10    40    1
    33    11    15    1
    34    11    41    1
    35    11    42    1
    36    12    16    1
    37    12    43    1
    38    12    44    1
    39    13    17    1
    40    13    45    1
    41    13    46    1
    42    14    19    1
    43    14    47    1
    44    14    48    1
    45    15    18    1
    46    15    49    1
    47    15    50    1
    48    16    20    1
    49    16    51    1
    50    16    52    1
    51    17    53    1
    52    17    54    1
    53    17    55    1
    54    18    56    1
    55    18    57    1
    56    18    58    1
    57    19    20    3
