@<TRIPOS>MOLECULE
IMPHY015267
 29 28 0 0 0
SMALL
GASTEIGER

@<TRIPOS>ATOM
      1 O           3.7320   -2.2500    0.0000 O.2     1  UNL1       -0.2960
      2 C           2.8660    1.2500    0.0000 C.3     1  UNL1       -0.0433
      3 C           3.7320    0.7500    0.0000 C.3     1  UNL1       -0.0318
      4 C           5.4641   -0.2500    0.0000 C.3     1  UNL1       -0.0188
      5 C           4.5981   -0.7500    0.0000 C.2     1  UNL1       -0.0095
      6 C           3.7320   -0.2500    0.0000 C.2     1  UNL1       -0.0773
      7 C           2.8660    2.2500    0.0000 C.3     1  UNL1       -0.0624
      8 C           2.0000    0.7500    0.0000 C.3     1  UNL1       -0.0624
      9 C           6.3301   -0.7500    0.0000 C.3     1  UNL1       -0.0586
     10 C           5.4641    0.7500    0.0000 C.3     1  UNL1       -0.0586
     11 C           4.5981   -1.7500    0.0000 C.2     1  UNL1        0.1462
     12 H           2.8660    0.6300    0.0000 H       1  UNL1        0.0298
     13 H           4.3426    0.6423    0.0000 H       1  UNL1        0.0310
     14 H           3.9441    1.3326    0.0000 H       1  UNL1        0.0310
     15 H           5.4641   -0.8700    0.0000 H       1  UNL1        0.0344
     16 H           3.1951   -0.5600    0.0000 H       1  UNL1        0.0576
     17 H           3.4860    2.2500    0.0000 H       1  UNL1        0.0232
     18 H           2.8660    2.8700    0.0000 H       1  UNL1        0.0232
     19 H           2.2460    2.2500    0.0000 H       1  UNL1        0.0232
     20 H           1.6900    1.2869    0.0000 H       1  UNL1        0.0232
     21 H           1.4631    0.4400    0.0000 H       1  UNL1        0.0232
     22 H           2.3100    0.2131    0.0000 H       1  UNL1        0.0232
     23 H           6.0201   -1.2869    0.0000 H       1  UNL1        0.0235
     24 H           6.8671   -1.0600    0.0000 H       1  UNL1        0.0235
     25 H           6.6401   -0.2131    0.0000 H       1  UNL1        0.0235
     26 H           6.0841    0.7500    0.0000 H       1  UNL1        0.0235
     27 H           5.4641    1.3700    0.0000 H       1  UNL1        0.0235
     28 H           4.8441    0.7500    0.0000 H       1  UNL1        0.0235
     29 H           5.1350   -2.0600    0.0000 H       1  UNL1        0.1078
@<TRIPOS>BOND
     1     1    11    2
     2     2     3    1
     3     2     7    1
     4     2     8    1
     5     2    12    1
     6     3     6    1
     7     3    13    1
     8     3    14    1
     9     4     5    1
    10     4     9    1
    11     4    10    1
    12     4    15    1
    13     5     6    2
    14     5    11    1
    15     6    16    1
    16     7    17    1
    17     7    18    1
    18     7    19    1
    19     8    20    1
    20     8    21    1
    21     8    22    1
    22     9    23    1
    23     9    24    1
    24     9    25    1
    25    10    26    1
    26    10    27    1
    27    10    28    1
    28    11    29    1
