@<TRIPOS>MOLECULE
IMPHY013320
 55 57 0 0 0
SMALL
GASTEIGER

@<TRIPOS>ATOM
      1 O           9.4893   -0.4861    0.0000 O.3     1  UNL1       -0.3857
      2 O           6.0010    0.4050    0.0000 O.2     1  UNL1       -0.4701
      3 O           6.8671   -1.0950    0.0000 O.3     1  UNL1       -0.3095
      4 O          10.2629    0.9050    0.0000 O.3     1  UNL1       -0.3864
      5 O           8.9900    2.6602    0.0000 O.3     1  UNL1       -0.3885
      6 O           5.1350   -1.0950    0.0000 O.3     1  UNL1       -0.3404
      7 O           6.8671   -3.0950    0.0000 O.3     1  UNL1       -0.3841
      8 O           6.0010    3.4050    0.0000 O.3     1  UNL1       -0.4646
      9 O           5.1350   -4.0950    0.0000 O.3     1  UNL1       -0.3864
     10 O           3.4030   -3.0950    0.0000 O.3     1  UNL1       -0.3865
     11 O           7.7331    3.4050    0.0000 O.2     1  UNL1       -0.2452
     12 O           2.5369   -1.5950    0.0000 O.3     1  UNL1       -0.3924
     13 C           7.7331    0.4050    0.0000 C.3     1  UNL1        0.0622
     14 C           8.6793    0.1003    0.0000 C.3     1  UNL1        0.1006
     15 C           7.7331    1.4050    0.0000 C.3     1  UNL1        0.0335
     16 C           9.2629    0.9050    0.0000 C.3     1  UNL1        0.1104
     17 C           8.6793    1.7097    0.0000 C.3     1  UNL1        0.0914
     18 C           6.8671   -0.0950    0.0000 C.3     1  UNL1        0.2096
     19 C           6.8671    1.9050    0.0000 C.2     1  UNL1        0.0769
     20 C           8.3719   -0.8513    0.0000 C.3     1  UNL1       -0.0331
     21 C           6.0010    1.4050    0.0000 C.2     1  UNL1        0.0982
     22 C           6.0010   -1.5950    0.0000 C.3     1  UNL1        0.1918
     23 C           6.0010   -2.5950    0.0000 C.3     1  UNL1        0.1342
     24 C           6.8671    2.9050    0.0000 C.2     1  UNL1        0.3382
     25 C           5.1350   -3.0950    0.0000 C.3     1  UNL1        0.1141
     26 C           4.2690   -2.5950    0.0000 C.3     1  UNL1        0.1119
     27 C           4.2690   -1.5950    0.0000 C.3     1  UNL1        0.1130
     28 C           3.4030   -1.0950    0.0000 C.3     1  UNL1        0.0730
     29 C           6.0010    4.4050    0.0000 C.3     1  UNL1        0.0820
     30 H           7.8230   -0.4402    0.0000 H       1  UNL1        0.0397
     31 H           7.8230    2.2502    0.0000 H       1  UNL1        0.0384
     32 H           9.5446    1.4573    0.0000 H       1  UNL1        0.0648
     33 H           8.2418    2.1491    0.0000 H       1  UNL1        0.0626
     34 H           7.4040   -0.4050    0.0000 H       1  UNL1        0.1060
     35 H           7.7820   -0.6608    0.0000 H       1  UNL1        0.0258
     36 H           8.1814   -1.4413    0.0000 H       1  UNL1        0.0258
     37 H           8.9619   -1.0419    0.0000 H       1  UNL1        0.0258
     38 H           9.4256   -1.1028    0.0000 H       1  UNL1        0.2103
     39 H           5.4641    1.7150    0.0000 H       1  UNL1        0.1029
     40 H           6.0010   -0.9750    0.0000 H       1  UNL1        0.0939
     41 H          10.5729    1.4419    0.0000 H       1  UNL1        0.2100
     42 H           9.5966    2.7881    0.0000 H       1  UNL1        0.2099
     43 H           6.0010   -3.2150    0.0000 H       1  UNL1        0.0671
     44 H           4.5981   -3.4050    0.0000 H       1  UNL1        0.0648
     45 H           4.2690   -3.2150    0.0000 H       1  UNL1        0.0647
     46 H           4.2690   -0.9750    0.0000 H       1  UNL1        0.0647
     47 H           3.8015   -0.6201    0.0000 H       1  UNL1        0.0584
     48 H           3.0044   -0.6201    0.0000 H       1  UNL1        0.0584
     49 H           6.8671   -3.7150    0.0000 H       1  UNL1        0.2101
     50 H           4.5981   -4.4050    0.0000 H       1  UNL1        0.2100
     51 H           3.4030   -3.7150    0.0000 H       1  UNL1        0.2100
     52 H           6.6210    4.4050    0.0000 H       1  UNL1        0.0661
     53 H           6.0010    5.0250    0.0000 H       1  UNL1        0.0661
     54 H           5.3810    4.4050    0.0000 H       1  UNL1        0.0661
     55 H           2.0000   -1.2850    0.0000 H       1  UNL1        0.2095
@<TRIPOS>BOND
     1    14     1    1
     2     1    38    1
     3     2    18    1
     4     2    21    1
     5    18     3    1
     6    22     3    1
     7    16     4    1
     8     4    41    1
     9    17     5    1
    10     5    42    1
    11     6    22    1
    12     6    27    1
    13    23     7    1
    14     7    49    1
    15     8    24    1
    16     8    29    1
    17    25     9    1
    18     9    50    1
    19    26    10    1
    20    10    51    1
    21    11    24    2
    22    12    28    1
    23    12    55    1
    24    13    14    1
    25    13    15    1
    26    13    18    1
    27    13    30    1
    28    14    16    1
    29    14    20    1
    30    15    17    1
    31    15    19    1
    32    15    31    1
    33    16    17    1
    34    16    32    1
    35    17    33    1
    36    18    34    1
    37    19    21    2
    38    19    24    1
    39    20    35    1
    40    20    36    1
    41    20    37    1
    42    21    39    1
    43    22    23    1
    44    22    40    1
    45    23    25    1
    46    23    43    1
    47    25    26    1
    48    25    44    1
    49    26    27    1
    50    26    45    1
    51    27    28    1
    52    27    46    1
    53    28    47    1
    54    28    48    1
    55    29    52    1
    56    29    53    1
    57    29    54    1
