@<TRIPOS>MOLECULE
IMPHY005635
 42 43 0 0 0
SMALL
GASTEIGER

@<TRIPOS>ATOM
      1 O           3.3100    1.9899    0.0000 O.3     1  UNL1       -0.3890
      2 O           2.3100    0.2579    0.0000 O.3     1  UNL1       -0.3892
      3 O           4.8100   -2.3402    0.0000 O.2     1  UNL1       -0.3007
      4 C           5.3100    0.2579    0.0000 C.3     1  UNL1       -0.0144
      5 C           4.8100    1.1239    0.0000 C.3     1  UNL1       -0.0091
      6 C           5.8978    1.0669    0.0000 C.3     1  UNL1       -0.0399
      7 C           4.8100   -0.6081    0.0000 C.3     1  UNL1        0.0229
      8 C           5.8978   -0.5511    0.0000 C.3     1  UNL1       -0.0459
      9 C           6.8488    0.7579    0.0000 C.3     1  UNL1       -0.0199
     10 C           6.8488   -0.2421    0.0000 C.3     1  UNL1       -0.0460
     11 C           3.8100    1.1239    0.0000 C.3     1  UNL1        0.0841
     12 C           3.8100   -0.6081    0.0000 C.3     1  UNL1       -0.0146
     13 C           3.3100    0.2579    0.0000 C.3     1  UNL1        0.0820
     14 C           5.3100    1.9899    0.0000 C.3     1  UNL1       -0.0595
     15 C           7.6579    1.3457    0.0000 C.2     1  UNL1       -0.0766
     16 C           5.3100   -1.4742    0.0000 C.2     1  UNL1        0.1240
     17 C           8.5714    0.9389    0.0000 C.3     1  UNL1       -0.0438
     18 C           7.5533    2.3402    0.0000 C.2     1  UNL1       -0.0994
     19 H           5.4300    1.1239    0.0000 H       1  UNL1        0.0329
     20 H           6.1500    1.6333    0.0000 H       1  UNL1        0.0277
     21 H           5.3608    1.3769    0.0000 H       1  UNL1        0.0277
     22 H           5.4300   -0.6081    0.0000 H       1  UNL1        0.0381
     23 H           5.3608   -0.8611    0.0000 H       1  UNL1        0.0271
     24 H           6.1500   -1.1175    0.0000 H       1  UNL1        0.0271
     25 H           6.7518    1.3702    0.0000 H       1  UNL1        0.0346
     26 H           6.9778   -0.8486    0.0000 H       1  UNL1        0.0271
     27 H           7.4654   -0.1773    0.0000 H       1  UNL1        0.0271
     28 H           3.1900    1.1239    0.0000 H       1  UNL1        0.0622
     29 H           3.2274   -0.8202    0.0000 H       1  UNL1        0.0298
     30 H           3.9177   -1.2187    0.0000 H       1  UNL1        0.0298
     31 H           3.6200    0.7948    0.0000 H       1  UNL1        0.0619
     32 H           5.8469    1.6799    0.0000 H       1  UNL1        0.0233
     33 H           5.6200    2.5269    0.0000 H       1  UNL1        0.0233
     34 H           4.7731    2.2999    0.0000 H       1  UNL1        0.0233
     35 H           5.9300   -1.4742    0.0000 H       1  UNL1        0.1029
     36 H           2.6900    1.9899    0.0000 H       1  UNL1        0.2099
     37 H           2.0000   -0.2791    0.0000 H       1  UNL1        0.2099
     38 H           8.3192    0.3725    0.0000 H       1  UNL1        0.0274
     39 H           9.1378    0.6868    0.0000 H       1  UNL1        0.0274
     40 H           8.8236    1.5053    0.0000 H       1  UNL1        0.0274
     41 H           8.0549    2.7046    0.0000 H       1  UNL1        0.0534
     42 H           6.9869    2.5924    0.0000 H       1  UNL1        0.0534
@<TRIPOS>BOND
     1    11     1    1
     2     1    36    1
     3    13     2    1
     4     2    37    1
     5     3    16    2
     6     4     5    1
     7     4     6    1
     8     4     7    1
     9     4     8    1
    10     5    11    1
    11     5    14    1
    12     5    19    1
    13     6     9    1
    14     6    20    1
    15     6    21    1
    16     7    12    1
    17     7    16    1
    18     7    22    1
    19     8    10    1
    20     8    23    1
    21     8    24    1
    22     9    10    1
    23     9    15    1
    24     9    25    1
    25    10    26    1
    26    10    27    1
    27    11    13    1
    28    11    28    1
    29    12    13    1
    30    12    29    1
    31    12    30    1
    32    13    31    1
    33    14    32    1
    34    14    33    1
    35    14    34    1
    36    15    17    1
    37    15    18    2
    38    16    35    1
    39    17    38    1
    40    17    39    1
    41    17    40    1
    42    18    41    1
    43    18    42    1
