@<TRIPOS>MOLECULE
IMPHY016573
 29 29 0 0 0
SMALL
GASTEIGER

@<TRIPOS>ATOM
      1 O           2.0000   -2.1900    0.0000 O.3     1  UNL1       -0.3947
      2 C           2.8660   -0.6900    0.0000 C.3     1  UNL1       -0.0178
      3 C           2.8660    1.3100    0.0000 C.3     1  UNL1       -0.0204
      4 C           3.7320   -0.1900    0.0000 C.3     1  UNL1       -0.0476
      5 C           2.0000   -0.1900    0.0000 C.3     1  UNL1       -0.0476
      6 C           3.7320    0.8100    0.0000 C.3     1  UNL1       -0.0462
      7 C           2.0000    0.8100    0.0000 C.3     1  UNL1       -0.0462
      8 C           2.8660   -1.6900    0.0000 C.3     1  UNL1        0.0470
      9 C           2.8660    2.3100    0.0000 C.2     1  UNL1       -0.0766
     10 C           3.7320    2.8100    0.0000 C.3     1  UNL1       -0.0438
     11 C           2.0000    2.8100    0.0000 C.2     1  UNL1       -0.0994
     12 H           3.4030   -1.0000    0.0000 H       1  UNL1        0.0323
     13 H           3.4030    1.6200    0.0000 H       1  UNL1        0.0345
     14 H           3.9441   -0.7726    0.0000 H       1  UNL1        0.0269
     15 H           4.3426   -0.0823    0.0000 H       1  UNL1        0.0269
     16 H           1.3894   -0.0823    0.0000 H       1  UNL1        0.0269
     17 H           1.7880   -0.7726    0.0000 H       1  UNL1        0.0269
     18 H           4.3426    0.7023    0.0000 H       1  UNL1        0.0271
     19 H           3.9441    1.3926    0.0000 H       1  UNL1        0.0271
     20 H           1.7880    1.3926    0.0000 H       1  UNL1        0.0271
     21 H           1.3894    0.7023    0.0000 H       1  UNL1        0.0271
     22 H           3.0781   -2.2726    0.0000 H       1  UNL1        0.0560
     23 H           3.4766   -1.5823    0.0000 H       1  UNL1        0.0560
     24 H           4.0420    2.2731    0.0000 H       1  UNL1        0.0274
     25 H           4.2690    3.1200    0.0000 H       1  UNL1        0.0274
     26 H           3.4220    3.3469    0.0000 H       1  UNL1        0.0274
     27 H           2.0000    3.4300    0.0000 H       1  UNL1        0.0534
     28 H           1.4631    2.5000    0.0000 H       1  UNL1        0.0534
     29 H           2.0000   -2.8100    0.0000 H       1  UNL1        0.2094
@<TRIPOS>BOND
     1     1     8    1
     2     1    29    1
     3     2     4    1
     4     2     5    1
     5     2     8    1
     6     2    12    1
     7     3     6    1
     8     3     7    1
     9     3     9    1
    10     3    13    1
    11     4     6    1
    12     4    14    1
    13     4    15    1
    14     5     7    1
    15     5    16    1
    16     5    17    1
    17     6    18    1
    18     6    19    1
    19     7    20    1
    20     7    21    1
    21     8    22    1
    22     8    23    1
    23     9    10    1
    24     9    11    2
    25    10    24    1
    26    10    25    1
    27    10    26    1
    28    11    27    1
    29    11    28    1
