@<TRIPOS>MOLECULE
IMPHY017770
 27 27 0 0 0
SMALL
GASTEIGER

@<TRIPOS>ATOM
      1 O           2.8660   -3.0000    0.0000 O.2     1  UNL1       -0.2971
      2 C           2.8660    0.0000    0.0000 C.2     1  UNL1       -0.0726
      3 C           2.8660    1.0000    0.0000 C.3     1  UNL1       -0.0317
      4 C           3.7320   -0.5000    0.0000 C.3     1  UNL1       -0.0250
      5 C           3.7320    1.5000    0.0000 C.3     1  UNL1       -0.0496
      6 C           3.7320   -1.5000    0.0000 C.3     1  UNL1        0.0098
      7 C           2.0000   -0.5000    0.0000 C.2     1  UNL1       -0.0777
      8 C           2.0000   -1.5000    0.0000 C.3     1  UNL1        0.0242
      9 C           2.8660   -2.0000    0.0000 C.2     1  UNL1        0.1374
     10 C           3.7320    2.5000    0.0000 C.3     1  UNL1       -0.0556
     11 C           4.5981    3.0000    0.0000 C.3     1  UNL1       -0.0653
     12 H           2.6540    1.5826    0.0000 H       1  UNL1        0.0310
     13 H           2.2554    0.8923    0.0000 H       1  UNL1        0.0310
     14 H           4.3426   -0.6077    0.0000 H       1  UNL1        0.0314
     15 H           3.9441    0.0826    0.0000 H       1  UNL1        0.0314
     16 H           3.9441    0.9174    0.0000 H       1  UNL1        0.0268
     17 H           4.3426    1.6077    0.0000 H       1  UNL1        0.0268
     18 H           3.9441   -2.0826    0.0000 H       1  UNL1        0.0345
     19 H           4.3426   -1.3923    0.0000 H       1  UNL1        0.0345
     20 H           1.4631   -0.1900    0.0000 H       1  UNL1        0.0576
     21 H           1.3894   -1.3923    0.0000 H       1  UNL1        0.0384
     22 H           1.7880   -2.0826    0.0000 H       1  UNL1        0.0384
     23 H           3.5200    3.0826    0.0000 H       1  UNL1        0.0263
     24 H           3.1215    2.3923    0.0000 H       1  UNL1        0.0263
     25 H           4.9081    2.4631    0.0000 H       1  UNL1        0.0230
     26 H           5.1350    3.3100    0.0000 H       1  UNL1        0.0230
     27 H           4.2881    3.5369    0.0000 H       1  UNL1        0.0230
@<TRIPOS>BOND
     1     1     9    2
     2     2     3    1
     3     2     4    1
     4     2     7    2
     5     3     5    1
     6     3    12    1
     7     3    13    1
     8     4     6    1
     9     4    14    1
    10     4    15    1
    11     5    10    1
    12     5    16    1
    13     5    17    1
    14     6     9    1
    15     6    18    1
    16     6    19    1
    17     7     8    1
    18     7    20    1
    19     8     9    1
    20     8    21    1
    21     8    22    1
    22    10    11    1
    23    10    23    1
    24    10    24    1
    25    11    25    1
    26    11    26    1
    27    11    27    1
