@<TRIPOS>MOLECULE
IMPHY015226
 21 21 0 0 0
SMALL
GASTEIGER

@<TRIPOS>ATOM
      1 S           2.8660    0.0000    0.0000 S.3     1  UNL1       -0.1330
      2 S           3.7320    1.5000    0.0000 S.3     1  UNL1       -0.1330
      3 S           4.5981   -0.0000    0.0000 S.3     1  UNL1       -0.1330
      4 C           2.8660    1.0000    0.0000 C.3     1  UNL1        0.0502
      5 C           3.7320   -0.5000    0.0000 C.3     1  UNL1        0.0502
      6 C           4.5981    1.0000    0.0000 C.3     1  UNL1        0.0502
      7 C           2.0000    1.5000    0.0000 C.3     1  UNL1       -0.0440
      8 C           3.7320   -1.5000    0.0000 C.3     1  UNL1       -0.0440
      9 C           5.4641    1.5000    0.0000 C.3     1  UNL1       -0.0440
     10 H           2.8660    1.6200    0.0000 H       1  UNL1        0.0523
     11 H           4.2690   -0.8100    0.0000 H       1  UNL1        0.0523
     12 H           4.5981    1.6200    0.0000 H       1  UNL1        0.0523
     13 H           2.3100    2.0369    0.0000 H       1  UNL1        0.0248
     14 H           1.4631    1.8100    0.0000 H       1  UNL1        0.0248
     15 H           1.6900    0.9631    0.0000 H       1  UNL1        0.0248
     16 H           3.1120   -1.5000    0.0000 H       1  UNL1        0.0248
     17 H           3.7320   -2.1200    0.0000 H       1  UNL1        0.0248
     18 H           4.3520   -1.5000    0.0000 H       1  UNL1        0.0248
     19 H           5.7741    0.9631    0.0000 H       1  UNL1        0.0248
     20 H           6.0010    1.8100    0.0000 H       1  UNL1        0.0248
     21 H           5.1541    2.0369    0.0000 H       1  UNL1        0.0248
@<TRIPOS>BOND
     1     1     4    1
     2     1     5    1
     3     2     4    1
     4     2     6    1
     5     3     5    1
     6     3     6    1
     7     4     7    1
     8     4    10    1
     9     5     8    1
    10     5    11    1
    11     6     9    1
    12     6    12    1
    13     7    13    1
    14     7    14    1
    15     7    15    1
    16     8    16    1
    17     8    17    1
    18     8    18    1
    19     9    19    1
    20     9    20    1
    21     9    21    1
