@<TRIPOS>MOLECULE
IMPHY009442
 48 49 0 0 0
SMALL
GASTEIGER

@<TRIPOS>ATOM
      1 O           6.0010    0.4827    0.0000 O.3     1  UNL1       -0.4889
      2 O           2.5369    1.4827    0.0000 O.3     1  UNL1       -0.3865
      3 O           4.2690   -0.5173    0.0000 O.3     1  UNL1       -0.3856
      4 O           9.4931    0.4480    0.0000 O.2     1  UNL1       -0.4217
      5 O          11.2632    0.4585    0.0000 O.2     1  UNL1       -0.2452
      6 C           3.4030    0.9827    0.0000 C.3     1  UNL1        0.0894
      7 C           4.2690    0.4827    0.0000 C.3     1  UNL1        0.1171
      8 C           5.1350    0.9827    0.0000 C.3     1  UNL1        0.1181
      9 C           2.9030    0.1166    0.0000 C.3     1  UNL1       -0.0338
     10 C           3.9030    1.8487    0.0000 C.3     1  UNL1       -0.0338
     11 C           7.7331    0.4827    0.0000 C.ar    1  UNL1        0.0409
     12 C           6.8671    0.9827    0.0000 C.ar    1  UNL1        0.1276
     13 C           8.5991    0.9827    0.0000 C.ar    1  UNL1        0.1460
     14 C           7.7331   -0.5173    0.0000 C.3     1  UNL1       -0.0023
     15 C           8.5991    1.9827    0.0000 C.ar    1  UNL1        0.0181
     16 C           6.8671    1.9827    0.0000 C.ar    1  UNL1       -0.0189
     17 C           7.7331    2.4827    0.0000 C.ar    1  UNL1       -0.0476
     18 C           6.8671   -1.0173    0.0000 C.2     1  UNL1       -0.0807
     19 C           9.4931    2.5173    0.0000 C.ar    1  UNL1       -0.0443
     20 C           6.8671   -2.0173    0.0000 C.2     1  UNL1       -0.0793
     21 C          10.3991    2.0035    0.0000 C.ar    1  UNL1        0.0236
     22 C          10.3991    0.9619    0.0000 C.ar    1  UNL1        0.3372
     23 C           6.0010   -2.5173    0.0000 C.3     1  UNL1       -0.0440
     24 C           7.7331   -2.5173    0.0000 C.3     1  UNL1       -0.0440
     25 H           4.8059    0.1727    0.0000 H       1  UNL1        0.0656
     26 H           5.5335    1.4576    0.0000 H       1  UNL1        0.0724
     27 H           4.7365    1.4576    0.0000 H       1  UNL1        0.0724
     28 H           2.3660    0.4266    0.0000 H       1  UNL1        0.0258
     29 H           2.5930   -0.4203    0.0000 H       1  UNL1        0.0258
     30 H           3.4399   -0.1934    0.0000 H       1  UNL1        0.0258
     31 H           4.4399    1.5387    0.0000 H       1  UNL1        0.0258
     32 H           4.2130    2.3856    0.0000 H       1  UNL1        0.0258
     33 H           3.3660    2.1587    0.0000 H       1  UNL1        0.0258
     34 H           7.9451   -1.0999    0.0000 H       1  UNL1        0.0358
     35 H           8.3437   -0.4097    0.0000 H       1  UNL1        0.0358
     36 H           2.0000    1.1727    0.0000 H       1  UNL1        0.2102
     37 H           3.7320   -0.8273    0.0000 H       1  UNL1        0.2100
     38 H           6.3301    2.2927    0.0000 H       1  UNL1        0.0654
     39 H           7.7331    3.1027    0.0000 H       1  UNL1        0.0626
     40 H           6.3301   -0.7073    0.0000 H       1  UNL1        0.0575
     41 H           9.4859    3.1373    0.0000 H       1  UNL1        0.0627
     42 H          10.9349    2.3156    0.0000 H       1  UNL1        0.0689
     43 H           5.6910   -1.9804    0.0000 H       1  UNL1        0.0274
     44 H           7.4231   -3.0543    0.0000 H       1  UNL1        0.0274
     45 H           8.2700   -2.8273    0.0000 H       1  UNL1        0.0274
     46 H           8.0431   -1.9804    0.0000 H       1  UNL1        0.0274
     47 H           5.4641   -2.8273    0.0000 H       1  UNL1        0.0274
     48 H           6.3110   -3.0543    0.0000 H       1  UNL1        0.0274
@<TRIPOS>BOND
     1     1     8    1
     2     1    12    1
     3     2     6    1
     4     2    36    1
     5     3     7    1
     6     3    37    1
     7     4    13   ar
     8     4    22   ar
     9     5    22    2
    10     6     7    1
    11     6     9    1
    12     6    10    1
    13     7     8    1
    14     7    25    1
    15     8    26    1
    16     8    27    1
    17     9    28    1
    18     9    29    1
    19     9    30    1
    20    10    31    1
    21    10    32    1
    22    10    33    1
    23    11    12   ar
    24    11    13   ar
    25    11    14    1
    26    12    16   ar
    27    13    15   ar
    28    14    18    1
    29    14    34    1
    30    14    35    1
    31    15    17   ar
    32    15    19   ar
    33    16    17   ar
    34    16    38    1
    35    17    39    1
    36    18    20    2
    37    18    40    1
    38    19    21   ar
    39    19    41    1
    40    20    23    1
    41    20    24    1
    42    21    22   ar
    43    21    42    1
    44    23    43    1
    45    23    47    1
    46    23    48    1
    47    24    44    1
    48    24    45    1
    49    24    46    1
