@<TRIPOS>MOLECULE
IMPHY008008
 30 30 0 0 0
SMALL
GASTEIGER

@<TRIPOS>ATOM
      1 O           3.7320   -1.3100    0.0000 O.3     1  UNL1       -0.4886
      2 O           5.4641   -2.3100    0.0000 O.3     1  UNL1       -0.4915
      3 C           4.5981   -0.8100    0.0000 C.ar    1  UNL1        0.1624
      4 C           5.4641    0.6900    0.0000 C.ar    1  UNL1       -0.0216
      5 C           5.4641   -1.3100    0.0000 C.ar    1  UNL1        0.1615
      6 C           4.5981    0.1900    0.0000 C.ar    1  UNL1       -0.0091
      7 C           6.3301    0.1900    0.0000 C.ar    1  UNL1       -0.0509
      8 C           6.3301   -0.8100    0.0000 C.ar    1  UNL1       -0.0157
      9 C           2.8660   -0.8100    0.0000 C.3     1  UNL1        0.0870
     10 C           5.4641    1.6900    0.0000 C.2     1  UNL1       -0.0587
     11 C           2.0000   -1.3100    0.0000 C.3     1  UNL1       -0.0307
     12 C           6.3301    2.1900    0.0000 C.2     1  UNL1       -0.0865
     13 C           6.3301   -2.8100    0.0000 C.3     1  UNL1        0.0790
     14 C           7.1962    1.6900    0.0000 C.3     1  UNL1       -0.0465
     15 H           4.0611    0.5000    0.0000 H       1  UNL1        0.0661
     16 H           6.8671    0.5000    0.0000 H       1  UNL1        0.0625
     17 H           6.8671   -1.1200    0.0000 H       1  UNL1        0.0655
     18 H           3.2646   -0.3351    0.0000 H       1  UNL1        0.0694
     19 H           2.4675   -0.3351    0.0000 H       1  UNL1        0.0694
     20 H           4.9272    2.0000    0.0000 H       1  UNL1        0.0620
     21 H           1.6900   -0.7731    0.0000 H       1  UNL1        0.0262
     22 H           1.4631   -1.6200    0.0000 H       1  UNL1        0.0262
     23 H           2.3100   -1.8469    0.0000 H       1  UNL1        0.0262
     24 H           6.3301    2.8100    0.0000 H       1  UNL1        0.0569
     25 H           6.0201   -3.3469    0.0000 H       1  UNL1        0.0660
     26 H           6.8671   -3.1200    0.0000 H       1  UNL1        0.0660
     27 H           6.6401   -2.2731    0.0000 H       1  UNL1        0.0660
     28 H           6.8862    1.1531    0.0000 H       1  UNL1        0.0272
     29 H           7.7331    1.3800    0.0000 H       1  UNL1        0.0272
     30 H           7.5062    2.2269    0.0000 H       1  UNL1        0.0272
@<TRIPOS>BOND
     1     1     3    1
     2     1     9    1
     3     2     5    1
     4     2    13    1
     5     3     5   ar
     6     3     6   ar
     7     4     6   ar
     8     4     7   ar
     9     4    10    1
    10     5     8   ar
    11     6    15    1
    12     7     8   ar
    13     7    16    1
    14     8    17    1
    15     9    11    1
    16     9    18    1
    17     9    19    1
    18    10    12    2
    19    10    20    1
    20    11    21    1
    21    11    22    1
    22    11    23    1
    23    12    14    1
    24    12    24    1
    25    13    25    1
    26    13    26    1
    27    13    27    1
    28    14    28    1
    29    14    29    1
    30    14    30    1
