@<TRIPOS>MOLECULE
IMPHY012082
 27 27 0 0 0
SMALL
GASTEIGER

@<TRIPOS>ATOM
      1 O           3.7601   -0.7694    0.0000 O.3     1  UNL1       -0.4613
      2 O           2.0000   -0.4907    0.0000 O.2     1  UNL1       -0.2508
      3 C           4.5691   -0.1816    0.0000 C.3     1  UNL1        0.1036
      4 C           5.5202   -0.4907    0.0000 C.3     1  UNL1       -0.0157
      5 C           4.2601    0.7694    0.0000 C.3     1  UNL1       -0.0056
      6 C           6.2633    0.1785    0.0000 C.3     1  UNL1       -0.0497
      7 C           3.2601    0.7694    0.0000 C.3     1  UNL1        0.0483
      8 C           7.2144   -0.1305    0.0000 C.3     1  UNL1       -0.0532
      9 C           2.9511   -0.1816    0.0000 C.2     1  UNL1        0.3075
     10 C           7.9575    0.5386    0.0000 C.3     1  UNL1       -0.0559
     11 C           8.9086    0.2296    0.0000 C.3     1  UNL1       -0.0653
     12 H           4.6661   -0.7940    0.0000 H       1  UNL1        0.0734
     13 H           5.2291   -1.0381    0.0000 H       1  UNL1        0.0301
     14 H           6.0087   -0.8724    0.0000 H       1  UNL1        0.0301
     15 H           4.8665    0.8983    0.0000 H       1  UNL1        0.0306
     16 H           4.1953    1.3860    0.0000 H       1  UNL1        0.0306
     17 H           6.5544    0.7259    0.0000 H       1  UNL1        0.0266
     18 H           5.7747    0.5602    0.0000 H       1  UNL1        0.0266
     19 H           3.3249    1.3860    0.0000 H       1  UNL1        0.0379
     20 H           2.6536    0.8983    0.0000 H       1  UNL1        0.0379
     21 H           6.9233   -0.6780    0.0000 H       1  UNL1        0.0265
     22 H           7.7029   -0.5122    0.0000 H       1  UNL1        0.0265
     23 H           8.2486    1.0860    0.0000 H       1  UNL1        0.0263
     24 H           7.4689    0.9203    0.0000 H       1  UNL1        0.0263
     25 H           8.7170   -0.3601    0.0000 H       1  UNL1        0.0230
     26 H           9.4982    0.0380    0.0000 H       1  UNL1        0.0230
     27 H           9.1001    0.8192    0.0000 H       1  UNL1        0.0230
@<TRIPOS>BOND
     1     1     3    1
     2     1     9    1
     3     2     9    2
     4     3     4    1
     5     3     5    1
     6     3    12    1
     7     4     6    1
     8     4    13    1
     9     4    14    1
    10     5     7    1
    11     5    15    1
    12     5    16    1
    13     6     8    1
    14     6    17    1
    15     6    18    1
    16     7     9    1
    17     7    19    1
    18     7    20    1
    19     8    10    1
    20     8    21    1
    21     8    22    1
    22    10    11    1
    23    10    23    1
    24    10    24    1
    25    11    25    1
    26    11    26    1
    27    11    27    1
