@<TRIPOS>MOLECULE
IMPHY016596
 46 48 0 0 0
SMALL
GASTEIGER

@<TRIPOS>ATOM
      1 CL          2.0000    0.1658    0.0000 Cl      1  UNL1       -0.0820
      2 O           8.1282   -2.3100    0.0000 O.3     1  UNL1       -0.4679
      3 O           7.2622    2.1900    0.0000 O.3     1  UNL1       -0.4920
      4 O           5.5301   -0.8100    0.0000 O.2     1  UNL1       -0.2668
      5 O           8.9942   -0.8100    0.0000 O.2     1  UNL1       -0.2508
      6 N           4.6641    0.6900    0.0000 N.ar    1  UNL1       -0.2664
      7 N           5.5301    2.1900    0.0000 N.ar    1  UNL1       -0.1948
      8 C           8.1282    0.6900    0.0000 C.3     1  UNL1       -0.0334
      9 C           7.2622    0.1900    0.0000 C.3     1  UNL1        0.0072
     10 C           8.9942    0.1900    0.0000 C.3     1  UNL1       -0.0496
     11 C           8.1282    1.6900    0.0000 C.3     1  UNL1       -0.0496
     12 C           9.8602    0.6900    0.0000 C.3     1  UNL1       -0.0528
     13 C           8.9942    2.1900    0.0000 C.3     1  UNL1       -0.0528
     14 C           9.8602    1.6900    0.0000 C.3     1  UNL1       -0.0530
     15 C           7.2622   -0.8100    0.0000 C.3     1  UNL1        0.0523
     16 C           6.3961    0.6900    0.0000 C.ar    1  UNL1        0.0825
     17 C           5.5301    0.1900    0.0000 C.ar    1  UNL1        0.2654
     18 C           6.3961    1.6900    0.0000 C.ar    1  UNL1        0.2230
     19 C           8.1282   -1.3100    0.0000 C.2     1  UNL1        0.3074
     20 C           4.6641    1.6900    0.0000 C.ar    1  UNL1        0.1441
     21 C           3.7702    0.1553    0.0000 C.ar    1  UNL1        0.0329
     22 C           3.7702    2.2247    0.0000 C.ar    1  UNL1       -0.0172
     23 C           2.8641    0.6692    0.0000 C.ar    1  UNL1        0.0577
     24 C           2.8641    1.7108    0.0000 C.ar    1  UNL1       -0.0385
     25 C           8.9942   -2.8100    0.0000 C.3     1  UNL1        0.0817
     26 H           8.1282    0.0700    0.0000 H       1  UNL1        0.0307
     27 H           6.7252   -0.1200    0.0000 H       1  UNL1        0.0360
     28 H           8.5957   -0.2849    0.0000 H       1  UNL1        0.0268
     29 H           9.3928   -0.2849    0.0000 H       1  UNL1        0.0268
     30 H           7.9162    2.2726    0.0000 H       1  UNL1        0.0268
     31 H           7.5176    1.5823    0.0000 H       1  UNL1        0.0268
     32 H          10.0723    0.1074    0.0000 H       1  UNL1        0.0265
     33 H          10.4708    0.7977    0.0000 H       1  UNL1        0.0265
     34 H           9.3928    2.6650    0.0000 H       1  UNL1        0.0265
     35 H           8.5957    2.6650    0.0000 H       1  UNL1        0.0265
     36 H          10.4708    1.5823    0.0000 H       1  UNL1        0.0265
     37 H          10.0723    2.2726    0.0000 H       1  UNL1        0.0265
     38 H           6.6516   -0.7023    0.0000 H       1  UNL1        0.0384
     39 H           7.0501   -1.3926    0.0000 H       1  UNL1        0.0384
     40 H           3.7773   -0.4646    0.0000 H       1  UNL1        0.0829
     41 H           7.2622    2.8100    0.0000 H       1  UNL1        0.2937
     42 H           3.7773    2.8446    0.0000 H       1  UNL1        0.0655
     43 H           2.3284    2.0229    0.0000 H       1  UNL1        0.0634
     44 H           8.6842   -3.3469    0.0000 H       1  UNL1        0.0661
     45 H           9.5312   -3.1200    0.0000 H       1  UNL1        0.0661
     46 H           9.3042   -2.2731    0.0000 H       1  UNL1        0.0661
@<TRIPOS>BOND
     1     1    23    1
     2     2    19    1
     3     2    25    1
     4     3    18    1
     5     3    41    1
     6     4    17    2
     7     5    19    2
     8     6    17   ar
     9     6    20   ar
    10     6    21   ar
    11     7    18   ar
    12     7    20   ar
    13     8     9    1
    14     8    10    1
    15     8    11    1
    16     8    26    1
    17     9    15    1
    18     9    16    1
    19     9    27    1
    20    10    12    1
    21    10    28    1
    22    10    29    1
    23    11    13    1
    24    11    30    1
    25    11    31    1
    26    12    14    1
    27    12    32    1
    28    12    33    1
    29    13    14    1
    30    13    34    1
    31    13    35    1
    32    14    36    1
    33    14    37    1
    34    15    19    1
    35    15    38    1
    36    15    39    1
    37    16    17   ar
    38    16    18   ar
    39    20    22   ar
    40    21    23   ar
    41    21    40    1
    42    22    24   ar
    43    22    42    1
    44    23    24   ar
    45    24    43    1
    46    25    44    1
    47    25    45    1
    48    25    46    1
