@<TRIPOS>MOLECULE
IMPHY005325
 25 25 0 0 0
SMALL
GASTEIGER

@<TRIPOS>ATOM
      1 O           4.2601   -1.6149    0.0000 O.3     1  UNL1       -0.4600
      2 O           5.5202   -0.3548    0.0000 O.2     1  UNL1       -0.2487
      3 O           5.4921    0.9239    0.0000 O.2     1  UNL1       -0.2761
      4 N           3.7601    0.9239    0.0000 N.am    1  UNL1       -0.3023
      5 C           2.9511   -0.6639    0.0000 C.3     1  UNL1        0.0218
      6 C           3.7601   -0.0761    0.0000 C.3     1  UNL1        0.1263
      7 C           3.2601   -1.6149    0.0000 C.3     1  UNL1        0.1051
      8 C           2.0000   -0.3548    0.0000 C.3     1  UNL1       -0.0568
      9 C           4.5691   -0.6639    0.0000 C.2     1  UNL1        0.3283
     10 C           2.6723   -2.4239    0.0000 C.3     1  UNL1       -0.0274
     11 C           4.6261    1.4239    0.0000 C.2     1  UNL1        0.2106
     12 C           4.6261    2.4239    0.0000 C.3     1  UNL1        0.0122
     13 H           2.8541   -0.0515    0.0000 H       1  UNL1        0.0357
     14 H           4.3125    0.2054    0.0000 H       1  UNL1        0.0618
     15 H           3.5416   -2.1673    0.0000 H       1  UNL1        0.0734
     16 H           2.1916    0.2348    0.0000 H       1  UNL1        0.0234
     17 H           1.4103   -0.1632    0.0000 H       1  UNL1        0.0234
     18 H           1.8084   -0.9445    0.0000 H       1  UNL1        0.0234
     19 H           2.1707   -2.0595    0.0000 H       1  UNL1        0.0265
     20 H           2.3079   -2.9255    0.0000 H       1  UNL1        0.0265
     21 H           3.1739   -2.7884    0.0000 H       1  UNL1        0.0265
     22 H           3.2231    1.2339    0.0000 H       1  UNL1        0.1495
     23 H           5.2461    2.4239    0.0000 H       1  UNL1        0.0322
     24 H           4.6261    3.0439    0.0000 H       1  UNL1        0.0322
     25 H           4.0061    2.4239    0.0000 H       1  UNL1        0.0322
@<TRIPOS>BOND
     1     1     7    1
     2     1     9    1
     3     2     9    2
     4     3    11    2
     5     6     4    1
     6     4    11   am
     7     4    22    1
     8     5     6    1
     9     5     7    1
    10     5     8    1
    11     5    13    1
    12     6     9    1
    13     6    14    1
    14     7    10    1
    15     7    15    1
    16     8    16    1
    17     8    17    1
    18     8    18    1
    19    10    19    1
    20    10    20    1
    21    10    21    1
    22    11    12    1
    23    12    23    1
    24    12    24    1
    25    12    25    1
