@<TRIPOS>MOLECULE
IMPHY015406
 30 29 0 0 0
SMALL
GASTEIGER

@<TRIPOS>ATOM
      1 O           7.1962   -0.5000    0.0000 O.2     1  UNL1       -0.2977
      2 N           3.7320    0.5000    0.0000 N.3     1  UNL1       -0.3028
      3 C           4.5981    1.0000    0.0000 C.3     1  UNL1       -0.0007
      4 C           5.4641    0.5000    0.0000 C.3     1  UNL1       -0.0335
      5 C           2.8660    1.0000    0.0000 C.3     1  UNL1       -0.0040
      6 C           3.7320   -0.5000    0.0000 C.3     1  UNL1       -0.0040
      7 C           6.3301    1.0000    0.0000 C.3     1  UNL1        0.0067
      8 C           2.0000    0.5000    0.0000 C.3     1  UNL1       -0.0524
      9 C           2.8660   -1.0000    0.0000 C.3     1  UNL1       -0.0524
     10 C           7.1962    0.5000    0.0000 C.2     1  UNL1        0.1304
     11 C           8.0622    1.0000    0.0000 C.3     1  UNL1       -0.0061
     12 H           4.9966    1.4750    0.0000 H       1  UNL1        0.0427
     13 H           4.1996    1.4750    0.0000 H       1  UNL1        0.0427
     14 H           5.0656    0.0251    0.0000 H       1  UNL1        0.0282
     15 H           5.8626    0.0251    0.0000 H       1  UNL1        0.0282
     16 H           3.2646    1.4750    0.0000 H       1  UNL1        0.0424
     17 H           2.4675    1.4750    0.0000 H       1  UNL1        0.0424
     18 H           3.9441   -1.0826    0.0000 H       1  UNL1        0.0424
     19 H           4.3426   -0.3923    0.0000 H       1  UNL1        0.0424
     20 H           6.7287    1.4750    0.0000 H       1  UNL1        0.0342
     21 H           5.9316    1.4750    0.0000 H       1  UNL1        0.0342
     22 H           1.6900    1.0369    0.0000 H       1  UNL1        0.0242
     23 H           1.4631    0.1900    0.0000 H       1  UNL1        0.0242
     24 H           2.3100   -0.0369    0.0000 H       1  UNL1        0.0242
     25 H           2.5560   -0.4631    0.0000 H       1  UNL1        0.0242
     26 H           2.3291   -1.3100    0.0000 H       1  UNL1        0.0242
     27 H           3.1760   -1.5369    0.0000 H       1  UNL1        0.0242
     28 H           8.3722    0.4631    0.0000 H       1  UNL1        0.0306
     29 H           8.5991    1.3100    0.0000 H       1  UNL1        0.0306
     30 H           7.7522    1.5369    0.0000 H       1  UNL1        0.0306
@<TRIPOS>BOND
     1     1    10    2
     2     2     3    1
     3     2     5    1
     4     2     6    1
     5     3     4    1
     6     3    12    1
     7     3    13    1
     8     4     7    1
     9     4    14    1
    10     4    15    1
    11     5     8    1
    12     5    16    1
    13     5    17    1
    14     6     9    1
    15     6    18    1
    16     6    19    1
    17     7    10    1
    18     7    20    1
    19     7    21    1
    20     8    22    1
    21     8    23    1
    22     8    24    1
    23     9    25    1
    24     9    26    1
    25     9    27    1
    26    10    11    1
    27    11    28    1
    28    11    29    1
    29    11    30    1
