@<TRIPOS>MOLECULE
IMPHY006273
 19 20 0 0 0
SMALL
GASTEIGER

@<TRIPOS>ATOM
      1 N           2.0000    0.9827    0.0000 N.ar    1  UNL1       -0.2624
      2 N           5.5321   -0.0381    0.0000 N.ar    1  UNL1       -0.2626
      3 C           3.7320   -0.0173    0.0000 C.ar    1  UNL1        0.0060
      4 C           2.8660   -0.5173    0.0000 C.ar    1  UNL1       -0.0232
      5 C           3.7320    0.9827    0.0000 C.ar    1  UNL1        0.0033
      6 C           4.6260   -0.5520    0.0000 C.ar    1  UNL1        0.0356
      7 C           2.8660   -1.5173    0.0000 C.3     1  UNL1       -0.0376
      8 C           4.6260    1.5173    0.0000 C.ar    1  UNL1       -0.0344
      9 C           2.0000   -0.0173    0.0000 C.ar    1  UNL1        0.0311
     10 C           2.8660    1.4827    0.0000 C.ar    1  UNL1        0.0354
     11 C           5.5321    1.0035    0.0000 C.ar    1  UNL1        0.0282
     12 H           4.6188   -1.1720    0.0000 H       1  UNL1        0.0836
     13 H           2.2460   -1.5173    0.0000 H       1  UNL1        0.0278
     14 H           2.8660   -2.1373    0.0000 H       1  UNL1        0.0278
     15 H           3.4860   -1.5173    0.0000 H       1  UNL1        0.0278
     16 H           4.6188    2.1373    0.0000 H       1  UNL1        0.0639
     17 H           1.4631   -0.3273    0.0000 H       1  UNL1        0.0832
     18 H           2.8660    2.1027    0.0000 H       1  UNL1        0.0836
     19 H           6.0678    1.3156    0.0000 H       1  UNL1        0.0830
@<TRIPOS>BOND
     1     1     9   ar
     2     1    10   ar
     3     2     6   ar
     4     2    11   ar
     5     3     4   ar
     6     3     5   ar
     7     3     6   ar
     8     4     7    1
     9     4     9   ar
    10     5     8   ar
    11     5    10   ar
    12     6    12    1
    13     7    13    1
    14     7    14    1
    15     7    15    1
    16     8    11   ar
    17     8    16    1
    18     9    17    1
    19    10    18    1
    20    11    19    1
