@<TRIPOS>MOLECULE
IMPHY007036
 16 16 0 0 0
SMALL
GASTEIGER

@<TRIPOS>ATOM
      1 O           2.8090   -0.0852    0.0000 O.2     1  UNL1       -0.4596
      2 O           5.3122    0.8627    0.0000 O.2     1  UNL1       -0.2803
      3 O           4.0339   -1.4537    0.0000 O.2     1  UNL1       -0.2888
      4 C           3.6180    0.5026    0.0000 C.ar    1  UNL1        0.1776
      5 C           4.5691    0.1936    0.0000 C.2     1  UNL1        0.2625
      6 C           3.3090    1.4537    0.0000 C.ar    1  UNL1       -0.0125
      7 C           4.7770   -0.7845    0.0000 C.2     1  UNL1        0.2030
      8 C           2.3090    1.4537    0.0000 C.ar    1  UNL1       -0.0232
      9 C           2.0000    0.5026    0.0000 C.ar    1  UNL1        0.0927
     10 C           5.7281   -1.0936    0.0000 C.3     1  UNL1        0.0020
     11 H           3.6734    1.9553    0.0000 H       1  UNL1        0.0656
     12 H           1.9446    1.9553    0.0000 H       1  UNL1        0.0649
     13 H           1.4103    0.3110    0.0000 H       1  UNL1        0.1029
     14 H           5.5365   -1.6832    0.0000 H       1  UNL1        0.0310
     15 H           6.3177   -1.2852    0.0000 H       1  UNL1        0.0310
     16 H           5.9196   -0.5039    0.0000 H       1  UNL1        0.0310
@<TRIPOS>BOND
     1     1     4   ar
     2     1     9   ar
     3     2     5    2
     4     3     7    2
     5     4     5    1
     6     4     6   ar
     7     5     7    1
     8     6     8   ar
     9     6    11    1
    10     7    10    1
    11     8     9   ar
    12     8    12    1
    13     9    13    1
    14    10    14    1
    15    10    15    1
    16    10    16    1
