@<TRIPOS>MOLECULE
IMPHY016267
 27 29 0 0 0
SMALL
GASTEIGER

@<TRIPOS>ATOM
      1 C           5.5321    0.5000    0.0000 C.ar    1  UNL1       -0.0170
      2 C           5.5321   -0.5000    0.0000 C.ar    1  UNL1       -0.0173
      3 C           3.8000    0.5000    0.0000 C.ar    1  UNL1       -0.0173
      4 C           3.8000   -0.5000    0.0000 C.ar    1  UNL1       -0.0173
      5 C           4.6660    1.0000    0.0000 C.ar    1  UNL1       -0.0463
      6 C           4.6660   -1.0000    0.0000 C.ar    1  UNL1       -0.0463
      7 C           6.4260    1.0347    0.0000 C.ar    1  UNL1       -0.0511
      8 C           7.3321    0.5208    0.0000 C.ar    1  UNL1       -0.0499
      9 C           6.4260   -1.0347    0.0000 C.ar    1  UNL1       -0.0538
     10 C           7.3321   -0.5208    0.0000 C.ar    1  UNL1       -0.0582
     11 C           2.9061    1.0347    0.0000 C.ar    1  UNL1       -0.0540
     12 C           2.9061   -1.0347    0.0000 C.ar    1  UNL1       -0.0540
     13 C           2.0000    0.5208    0.0000 C.ar    1  UNL1       -0.0612
     14 C           2.0000   -0.5208    0.0000 C.ar    1  UNL1       -0.0612
     15 C           8.1962    1.0241    0.0000 C.3     1  UNL1       -0.0397
     16 H           4.6660    1.6200    0.0000 H       1  UNL1        0.0630
     17 H           4.6660   -1.6200    0.0000 H       1  UNL1        0.0630
     18 H           6.4188    1.6546    0.0000 H       1  UNL1        0.0626
     19 H           6.4188   -1.6546    0.0000 H       1  UNL1        0.0624
     20 H           7.8678   -0.8329    0.0000 H       1  UNL1        0.0620
     21 H           2.9132    1.6546    0.0000 H       1  UNL1        0.0624
     22 H           2.9132   -1.6546    0.0000 H       1  UNL1        0.0624
     23 H           1.4643    0.8329    0.0000 H       1  UNL1        0.0618
     24 H           1.4643   -0.8329    0.0000 H       1  UNL1        0.0618
     25 H           8.5082    0.4884    0.0000 H       1  UNL1        0.0278
     26 H           8.7319    1.3362    0.0000 H       1  UNL1        0.0278
     27 H           7.8841    1.5599    0.0000 H       1  UNL1        0.0278
@<TRIPOS>BOND
     1     1     2   ar
     2     1     5   ar
     3     1     7   ar
     4     2     6   ar
     5     2     9   ar
     6     3     4   ar
     7     3     5   ar
     8     3    11   ar
     9     4     6   ar
    10     4    12   ar
    11     5    16    1
    12     6    17    1
    13     7     8   ar
    14     7    18    1
    15     8    10   ar
    16     8    15    1
    17     9    10   ar
    18     9    19    1
    19    10    20    1
    20    11    13   ar
    21    11    21    1
    22    12    14   ar
    23    12    22    1
    24    13    14   ar
    25    13    23    1
    26    14    24    1
    27    15    25    1
    28    15    26    1
    29    15    27    1
