@<TRIPOS>MOLECULE
IMPHY000835
 53 56 0 0 0
SMALL
GASTEIGER

@<TRIPOS>ATOM
      1 O           6.5271    1.7546    0.0000 O.2     1  UNL1       -0.2968
      2 O           7.9821    2.2542    0.0000 O.3     1  UNL1       -0.3892
      3 O           9.9391    2.6666    0.0000 O.3     1  UNL1       -0.3925
      4 O           2.0000   -2.7977    0.0000 O.2     1  UNL1       -0.2927
      5 C           7.3931    0.2546    0.0000 C.3     1  UNL1        0.0348
      6 C           7.3931   -0.7454    0.0000 C.3     1  UNL1       -0.0220
      7 C           6.5271   -1.2454    0.0000 C.3     1  UNL1       -0.0149
      8 C           5.6610   -0.7454    0.0000 C.3     1  UNL1       -0.0184
      9 C           8.3393    0.5594    0.0000 C.3     1  UNL1       -0.0005
     10 C           8.3393   -1.0501    0.0000 C.3     1  UNL1       -0.0484
     11 C           4.7510   -1.2522    0.0000 C.3     1  UNL1       -0.0028
     12 C           8.9229   -0.2454    0.0000 C.3     1  UNL1       -0.0466
     13 C           5.6610    0.2546    0.0000 C.3     1  UNL1        0.0106
     14 C           6.5271    0.7546    0.0000 C.2     1  UNL1        0.1401
     15 C           7.3931    1.2546    0.0000 C.3     1  UNL1       -0.0522
     16 C           8.6500    1.5099    0.0000 C.3     1  UNL1        0.0819
     17 C           6.5431   -2.2869    0.0000 C.2     1  UNL1       -0.0800
     18 C           4.7430   -2.2938    0.0000 C.2     1  UNL1       -0.0382
     19 C           3.8242   -0.6881    0.0000 C.3     1  UNL1       -0.0363
     20 C           4.7587   -0.2522    0.0000 C.3     1  UNL1       -0.0552
     21 C           5.6451   -2.8146    0.0000 C.2     1  UNL1       -0.0616
     22 C           2.8763   -1.2161    0.0000 C.3     1  UNL1        0.0107
     23 C           9.6285    1.7161    0.0000 C.3     1  UNL1        0.0704
     24 C           3.8076   -2.8435    0.0000 C.2     1  UNL1       -0.0155
     25 C           2.8680   -2.3010    0.0000 C.2     1  UNL1        0.1564
     26 H           7.4830   -1.5906    0.0000 H       1  UNL1        0.0316
     27 H           7.2664   -1.6647    0.0000 H       1  UNL1        0.0349
     28 H           6.3972   -0.3204    0.0000 H       1  UNL1        0.0319
     29 H           9.1790    0.6913    0.0000 H       1  UNL1        0.0336
     30 H           8.0883   -1.6170    0.0000 H       1  UNL1        0.0268
     31 H           8.8767   -1.3593    0.0000 H       1  UNL1        0.0268
     32 H           9.3838   -0.6601    0.0000 H       1  UNL1        0.0269
     33 H           9.3838    0.1694    0.0000 H       1  UNL1        0.0269
     34 H           5.4490    0.8373    0.0000 H       1  UNL1        0.0345
     35 H           5.0504    0.1470    0.0000 H       1  UNL1        0.0345
     36 H           8.0131    1.2546    0.0000 H       1  UNL1        0.0239
     37 H           7.3931    1.8746    0.0000 H       1  UNL1        0.0239
     38 H           6.7731    1.2546    0.0000 H       1  UNL1        0.0239
     39 H           8.0433    1.3820    0.0000 H       1  UNL1        0.0619
     40 H           7.0836   -2.5906    0.0000 H       1  UNL1        0.0575
     41 H           4.2324   -0.2215    0.0000 H       1  UNL1        0.0278
     42 H           3.4343   -0.2061    0.0000 H       1  UNL1        0.0278
     43 H           5.3787   -0.2570    0.0000 H       1  UNL1        0.0238
     44 H           4.7635    0.3678    0.0000 H       1  UNL1        0.0238
     45 H           4.1388   -0.2474    0.0000 H       1  UNL1        0.0238
     46 H           5.6475   -3.4346    0.0000 H       1  UNL1        0.0617
     47 H           2.6718   -0.6308    0.0000 H       1  UNL1        0.0345
     48 H           2.2647   -1.3174    0.0000 H       1  UNL1        0.0345
     49 H           9.6490    1.0965    0.0000 H       1  UNL1        0.0583
     50 H          10.2423    1.6288    0.0000 H       1  UNL1        0.0583
     51 H           3.8100   -3.4635    0.0000 H       1  UNL1        0.0655
     52 H           8.1747    2.8435    0.0000 H       1  UNL1        0.2099
     53 H          10.5458    2.7945    0.0000 H       1  UNL1        0.2095
@<TRIPOS>BOND
     1     1    14    2
     2    16     2    1
     3     2    52    1
     4     3    23    1
     5     3    53    1
     6     4    25    2
     7     5     6    1
     8     5     9    1
     9     5    14    1
    10     5    15    1
    11     6     7    1
    12     6    10    1
    13     6    26    1
    14     7     8    1
    15     7    17    1
    16     7    27    1
    17     8    11    1
    18     8    13    1
    19     8    28    1
    20     9    12    1
    21     9    16    1
    22     9    29    1
    23    10    12    1
    24    10    30    1
    25    10    31    1
    26    11    18    1
    27    11    19    1
    28    11    20    1
    29    12    32    1
    30    12    33    1
    31    13    14    1
    32    13    34    1
    33    13    35    1
    34    15    36    1
    35    15    37    1
    36    15    38    1
    37    16    23    1
    38    16    39    1
    39    17    21    2
    40    17    40    1
    41    18    21    1
    42    18    24    2
    43    19    22    1
    44    19    41    1
    45    19    42    1
    46    20    43    1
    47    20    44    1
    48    20    45    1
    49    21    46    1
    50    22    25    1
    51    22    47    1
    52    22    48    1
    53    23    49    1
    54    23    50    1
    55    24    25    1
    56    24    51    1
