@<TRIPOS>MOLECULE
IMPHY016439
 23 22 0 0 0
SMALL
GASTEIGER

@<TRIPOS>ATOM
      1 O           3.7320   -1.0600    0.0000 O.2     1  UNL1       -0.2927
      2 C           6.3301    0.4400    0.0000 C.3     1  UNL1       -0.0346
      3 C           7.1962   -0.0600    0.0000 C.3     1  UNL1       -0.0525
      4 C           5.4641   -0.0600    0.0000 C.2     1  UNL1       -0.0807
      5 C           8.0622    0.4400    0.0000 C.3     1  UNL1       -0.0650
      6 C           2.8660    0.4400    0.0000 C.3     1  UNL1        0.0070
      7 C           4.5981    0.4400    0.0000 C.2     1  UNL1       -0.0232
      8 C           3.7320   -0.0600    0.0000 C.2     1  UNL1        0.1555
      9 C           2.0000   -0.0600    0.0000 C.3     1  UNL1       -0.0583
     10 H           6.7287    0.9149    0.0000 H       1  UNL1        0.0307
     11 H           5.9316    0.9149    0.0000 H       1  UNL1        0.0307
     12 H           6.7976   -0.5349    0.0000 H       1  UNL1        0.0266
     13 H           7.5947   -0.5349    0.0000 H       1  UNL1        0.0266
     14 H           5.4641   -0.6800    0.0000 H       1  UNL1        0.0573
     15 H           8.3722   -0.0969    0.0000 H       1  UNL1        0.0230
     16 H           8.5991    0.7500    0.0000 H       1  UNL1        0.0230
     17 H           7.7522    0.9769    0.0000 H       1  UNL1        0.0230
     18 H           3.2646    0.9149    0.0000 H       1  UNL1        0.0342
     19 H           2.4675    0.9149    0.0000 H       1  UNL1        0.0342
     20 H           4.5981    1.0600    0.0000 H       1  UNL1        0.0649
     21 H           1.6900    0.4769    0.0000 H       1  UNL1        0.0234
     22 H           1.4631   -0.3700    0.0000 H       1  UNL1        0.0234
     23 H           2.3100   -0.5969    0.0000 H       1  UNL1        0.0234
@<TRIPOS>BOND
     1     1     8    2
     2     2     3    1
     3     2     4    1
     4     2    10    1
     5     2    11    1
     6     3     5    1
     7     3    12    1
     8     3    13    1
     9     4     7    2
    10     4    14    1
    11     5    15    1
    12     5    16    1
    13     5    17    1
    14     6     8    1
    15     6     9    1
    16     6    18    1
    17     6    19    1
    18     7     8    1
    19     7    20    1
    20     9    21    1
    21     9    22    1
    22     9    23    1
