@<TRIPOS>MOLECULE
IMPHY001442
 56 58 0 0 0
SMALL
GASTEIGER

@<TRIPOS>ATOM
      1 O           4.2690   -1.5654    0.0000 O.3     1  UNL1       -0.3405
      2 O           6.0010   -1.5654    0.0000 O.3     1  UNL1       -0.3484
      3 O           4.2690   -4.5654    0.0000 O.3     1  UNL1       -0.3864
      4 O           2.5369   -3.5654    0.0000 O.3     1  UNL1       -0.3865
      5 O           6.0010   -3.5654    0.0000 O.3     1  UNL1       -0.3841
      6 O           2.5369   -0.5654    0.0000 O.3     1  UNL1       -0.3924
      7 O           9.4486    2.8954    0.0000 O.2     1  UNL1       -0.2917
      8 O           4.2690    1.4346    0.0000 O.3     1  UNL1       -0.3904
      9 C           4.2690   -3.5654    0.0000 C.3     1  UNL1        0.1141
     10 C           3.4030   -3.0654    0.0000 C.3     1  UNL1        0.1119
     11 C           5.1350   -3.0654    0.0000 C.3     1  UNL1        0.1341
     12 C           3.4030   -2.0654    0.0000 C.3     1  UNL1        0.1130
     13 C           5.1350   -2.0654    0.0000 C.3     1  UNL1        0.1879
     14 C           8.0650    4.0094    0.0000 C.3     1  UNL1        0.0233
     15 C           7.0763    3.9064    0.0000 C.3     1  UNL1       -0.0174
     16 C           6.8671    2.9346    0.0000 C.ar    1  UNL1       -0.0356
     17 C           7.7331    2.4346    0.0000 C.ar    1  UNL1        0.0240
     18 C           6.8671    0.9346    0.0000 C.ar    1  UNL1       -0.0363
     19 C           7.7331    1.4346    0.0000 C.ar    1  UNL1       -0.0361
     20 C           8.4701    3.1016    0.0000 C.2     1  UNL1        0.1668
     21 C           6.8671   -0.0654    0.0000 C.3     1  UNL1       -0.0035
     22 C           2.5369   -1.5654    0.0000 C.3     1  UNL1        0.0730
     23 C           6.0010   -0.5654    0.0000 C.3     1  UNL1        0.0547
     24 C           6.0010    1.4346    0.0000 C.ar    1  UNL1       -0.0184
     25 C           6.0010    2.4346    0.0000 C.ar    1  UNL1       -0.0523
     26 C           8.5650    4.8754    0.0000 C.3     1  UNL1       -0.0551
     27 C           8.5991    0.9346    0.0000 C.3     1  UNL1       -0.0388
     28 C           5.1350    0.9346    0.0000 C.3     1  UNL1        0.0695
     29 H           4.8059   -3.8754    0.0000 H       1  UNL1        0.0648
     30 H           3.4030   -3.6854    0.0000 H       1  UNL1        0.0647
     31 H           5.6720   -2.7554    0.0000 H       1  UNL1        0.0671
     32 H           3.4030   -1.4454    0.0000 H       1  UNL1        0.0647
     33 H           5.1350   -1.4454    0.0000 H       1  UNL1        0.0937
     34 H           7.7275    4.5295    0.0000 H       1  UNL1        0.0381
     35 H           7.0772    4.5264    0.0000 H       1  UNL1        0.0320
     36 H           6.4598    3.9724    0.0000 H       1  UNL1        0.0320
     37 H           7.0791   -0.6481    0.0000 H       1  UNL1        0.0336
     38 H           7.4776    0.0422    0.0000 H       1  UNL1        0.0336
     39 H           1.9264   -1.4578    0.0000 H       1  UNL1        0.0584
     40 H           2.3249   -2.1481    0.0000 H       1  UNL1        0.0584
     41 H           5.7890    0.0172    0.0000 H       1  UNL1        0.0564
     42 H           5.3905   -0.6731    0.0000 H       1  UNL1        0.0564
     43 H           5.4641    2.7446    0.0000 H       1  UNL1        0.0624
     44 H           9.1019    4.5654    0.0000 H       1  UNL1        0.0237
     45 H           8.8750    5.4124    0.0000 H       1  UNL1        0.0237
     46 H           8.0280    5.1854    0.0000 H       1  UNL1        0.0237
     47 H           3.7320   -4.8754    0.0000 H       1  UNL1        0.2100
     48 H           2.0000   -3.2554    0.0000 H       1  UNL1        0.2100
     49 H           6.5380   -3.2554    0.0000 H       1  UNL1        0.2101
     50 H           8.2891    0.3976    0.0000 H       1  UNL1        0.0278
     51 H           9.1360    0.6246    0.0000 H       1  UNL1        0.0278
     52 H           8.9091    1.4715    0.0000 H       1  UNL1        0.0278
     53 H           4.7365    0.4596    0.0000 H       1  UNL1        0.0607
     54 H           5.5335    0.4596    0.0000 H       1  UNL1        0.0607
     55 H           2.0000   -0.2554    0.0000 H       1  UNL1        0.2095
     56 H           4.2690    2.0546    0.0000 H       1  UNL1        0.2098
@<TRIPOS>BOND
     1     1    12    1
     2     1    13    1
     3    13     2    1
     4     2    23    1
     5     9     3    1
     6     3    47    1
     7    10     4    1
     8     4    48    1
     9    11     5    1
    10     5    49    1
    11     6    22    1
    12     6    55    1
    13     7    20    2
    14     8    28    1
    15     8    56    1
    16     9    10    1
    17     9    11    1
    18     9    29    1
    19    10    12    1
    20    10    30    1
    21    11    13    1
    22    11    31    1
    23    12    22    1
    24    12    32    1
    25    13    33    1
    26    14    15    1
    27    14    20    1
    28    14    26    1
    29    14    34    1
    30    15    16    1
    31    15    35    1
    32    15    36    1
    33    16    17   ar
    34    16    25   ar
    35    17    19   ar
    36    17    20    1
    37    18    19   ar
    38    18    21    1
    39    18    24   ar
    40    19    27    1
    41    21    23    1
    42    21    37    1
    43    21    38    1
    44    22    39    1
    45    22    40    1
    46    23    41    1
    47    23    42    1
    48    24    25   ar
    49    24    28    1
    50    25    43    1
    51    26    44    1
    52    26    45    1
    53    26    46    1
    54    27    50    1
    55    27    51    1
    56    27    52    1
    57    28    53    1
    58    28    54    1
