@<TRIPOS>MOLECULE
IMPHY005299
 18 18 0 0 0
SMALL
GASTEIGER

@<TRIPOS>ATOM
      1 O           6.0010   -1.7500    0.0000 O.3     1  UNL1       -0.5067
      2 O           5.1350    1.7500    0.0000 O.3     1  UNL1       -0.4771
      3 O           3.4030    1.7500    0.0000 O.2     1  UNL1       -0.2451
      4 N           2.5369    0.2500    0.0000 N.pl3   1  UNL1       -0.3573
      5 C           4.2690    0.2500    0.0000 C.ar    1  UNL1        0.0828
      6 C           3.4030   -0.2500    0.0000 C.ar    1  UNL1        0.0389
      7 C           5.1350   -0.2500    0.0000 C.ar    1  UNL1       -0.0044
      8 C           3.4030   -1.2500    0.0000 C.ar    1  UNL1       -0.0368
      9 C           5.1350   -1.2500    0.0000 C.ar    1  UNL1        0.1178
     10 C           4.2690   -1.7500    0.0000 C.ar    1  UNL1       -0.0184
     11 C           4.2690    1.2500    0.0000 C.2     1  UNL1        0.3387
     12 H           5.6720    0.0600    0.0000 H       1  UNL1        0.0663
     13 H           2.8660   -1.5600    0.0000 H       1  UNL1        0.0637
     14 H           4.2690   -2.3700    0.0000 H       1  UNL1        0.0655
     15 H           2.0000   -0.0600    0.0000 H       1  UNL1        0.1423
     16 H           2.5369    0.8700    0.0000 H       1  UNL1        0.1423
     17 H           6.0010   -2.3700    0.0000 H       1  UNL1        0.2921
     18 H           5.1350    2.3700    0.0000 H       1  UNL1        0.2954
@<TRIPOS>BOND
     1     1     9    1
     2     1    17    1
     3     2    11    1
     4     2    18    1
     5     3    11    2
     6     4     6    1
     7     4    15    1
     8     4    16    1
     9     5     6   ar
    10     5     7   ar
    11     5    11    1
    12     6     8   ar
    13     7     9   ar
    14     7    12    1
    15     8    10   ar
    16     8    13    1
    17     9    10   ar
    18    10    14    1
