@<TRIPOS>MOLECULE
IMPHY007103
 52 54 0 0 0
SMALL
GASTEIGER

@<TRIPOS>ATOM
      1 O           4.6660   -1.0000    0.0000 O.2     1  UNL1       -0.4507
      2 O           6.4144    2.0346    0.0000 O.3     1  UNL1       -0.5055
      3 O           8.1962   -1.0241    0.0000 O.3     1  UNL1       -0.5062
      4 O           4.6660    2.0000    0.0000 O.2     1  UNL1       -0.2863
      5 O           2.9176   -2.0346    0.0000 O.3     1  UNL1       -0.5033
      6 C           7.3321    0.5208    0.0000 C.ar    1  UNL1        0.0400
      7 C           8.1962    1.0241    0.0000 C.3     1  UNL1       -0.0023
      8 C           5.5321    0.5000    0.0000 C.ar    1  UNL1        0.1063
      9 C           6.4260    1.0347    0.0000 C.ar    1  UNL1        0.1381
     10 C           5.5321   -0.5000    0.0000 C.ar    1  UNL1        0.1464
     11 C           9.9282    1.0308    0.0000 C.2     1  UNL1       -0.0759
     12 C          10.7961    0.5342    0.0000 C.3     1  UNL1       -0.0286
     13 C           7.3321   -0.5208    0.0000 C.ar    1  UNL1        0.1273
     14 C           9.0641    0.5275    0.0000 C.2     1  UNL1       -0.0805
     15 C           4.6660    1.0000    0.0000 C.ar    1  UNL1        0.2038
     16 C           3.8000    0.5000    0.0000 C.ar    1  UNL1        0.0683
     17 C           6.4260   -1.0347    0.0000 C.ar    1  UNL1        0.0234
     18 C          11.6602    1.0375    0.0000 C.3     1  UNL1       -0.0308
     19 C           3.8000   -0.5000    0.0000 C.ar    1  UNL1        0.1804
     20 C           9.9243    2.0308    0.0000 C.3     1  UNL1       -0.0438
     21 C           2.9061    1.0347    0.0000 C.ar    1  UNL1       -0.0471
     22 C           2.9061   -1.0347    0.0000 C.ar    1  UNL1        0.1598
     23 C          12.5282    0.5408    0.0000 C.2     1  UNL1       -0.0850
     24 C           2.0000    0.5208    0.0000 C.ar    1  UNL1       -0.0574
     25 C           2.0000   -0.5208    0.0000 C.ar    1  UNL1       -0.0165
     26 C          13.3923    1.0442    0.0000 C.2     1  UNL1       -0.0796
     27 C          14.2602    0.5475    0.0000 C.3     1  UNL1       -0.0440
     28 C          13.3884    2.0442    0.0000 C.3     1  UNL1       -0.0440
     29 H           8.5929    1.5006    0.0000 H       1  UNL1        0.0358
     30 H           7.7958    1.4976    0.0000 H       1  UNL1        0.0358
     31 H          10.3995    0.0577    0.0000 H       1  UNL1        0.0313
     32 H          11.1965    0.0608    0.0000 H       1  UNL1        0.0313
     33 H           9.0665   -0.0925    0.0000 H       1  UNL1        0.0575
     34 H           6.4188   -1.6546    0.0000 H       1  UNL1        0.0691
     35 H          12.0569    1.5140    0.0000 H       1  UNL1        0.0310
     36 H          11.2599    1.5109    0.0000 H       1  UNL1        0.0310
     37 H          10.5443    2.0332    0.0000 H       1  UNL1        0.0274
     38 H           9.9220    2.6508    0.0000 H       1  UNL1        0.0274
     39 H           9.3044    2.0284    0.0000 H       1  UNL1        0.0274
     40 H           2.9132    1.6546    0.0000 H       1  UNL1        0.0626
     41 H          12.5306   -0.0792    0.0000 H       1  UNL1        0.0572
     42 H           1.4643    0.8329    0.0000 H       1  UNL1        0.0619
     43 H           1.4643   -0.8329    0.0000 H       1  UNL1        0.0655
     44 H           6.9478    2.3508    0.0000 H       1  UNL1        0.2922
     45 H           8.1938   -1.6442    0.0000 H       1  UNL1        0.2921
     46 H          13.9523    0.0094    0.0000 H       1  UNL1        0.0274
     47 H          14.0084    2.0466    0.0000 H       1  UNL1        0.0274
     48 H          13.3860    2.6642    0.0000 H       1  UNL1        0.0274
     49 H          12.7684    2.0418    0.0000 H       1  UNL1        0.0274
     50 H          14.7983    0.2396    0.0000 H       1  UNL1        0.0274
     51 H          14.5681    1.0856    0.0000 H       1  UNL1        0.0274
     52 H           2.3843   -2.3508    0.0000 H       1  UNL1        0.2923
@<TRIPOS>BOND
     1     1    10   ar
     2     1    19   ar
     3     2     9    1
     4     2    44    1
     5     3    13    1
     6     3    45    1
     7     4    15    2
     8     5    22    1
     9     5    52    1
    10     6     7    1
    11     6     9   ar
    12     6    13   ar
    13     7    14    1
    14     7    29    1
    15     7    30    1
    16     8     9   ar
    17     8    10   ar
    18     8    15   ar
    19    10    17   ar
    20    11    12    1
    21    11    14    2
    22    11    20    1
    23    12    18    1
    24    12    31    1
    25    12    32    1
    26    13    17   ar
    27    14    33    1
    28    15    16   ar
    29    16    19   ar
    30    16    21   ar
    31    17    34    1
    32    18    23    1
    33    18    35    1
    34    18    36    1
    35    19    22   ar
    36    20    37    1
    37    20    38    1
    38    20    39    1
    39    21    24   ar
    40    21    40    1
    41    22    25   ar
    42    23    26    2
    43    23    41    1
    44    24    25   ar
    45    24    42    1
    46    25    43    1
    47    26    27    1
    48    26    28    1
    49    27    46    1
    50    27    50    1
    51    27    51    1
    52    28    47    1
    53    28    48    1
    54    28    49    1
