@<TRIPOS>MOLECULE
IMPHY007938
 165 172 0 0 0
SMALL
GASTEIGER

@<TRIPOS>ATOM
      1 O          20.0503    1.8529    0.0000 O.3     1  UNL1       -0.3876
      2 O          19.1708   -1.6437    0.0000 O.3     1  UNL1       -0.4569
      3 O          17.4426   -0.6370    0.0000 O.3     1  UNL1       -0.4575
      4 O          14.6613    2.9260    0.0000 O.3     1  UNL1       -0.3477
      5 O          21.5194   -2.1038    0.0000 O.2     1  UNL1       -0.2974
      6 O          20.6674   -2.5155    0.0000 O.2     1  UNL1       -0.2508
      7 O          18.3028   -2.1404    0.0000 O.2     1  UNL1       -0.2512
      8 O          12.9292    2.9260    0.0000 O.3     1  UNL1       -0.3456
      9 O          12.9292   -0.0740    0.0000 O.3     1  UNL1       -0.3770
     10 O          11.1972    0.9260    0.0000 O.3     1  UNL1       -0.3429
     11 O          10.3312    2.4260    0.0000 O.3     1  UNL1       -0.3456
     12 O           7.7331    0.9260    0.0000 O.3     1  UNL1       -0.3770
     13 O           7.7331    2.9260    0.0000 O.3     1  UNL1       -0.3403
     14 O           6.8671    1.4260    0.0000 O.3     1  UNL1       -0.3431
     15 O           6.0010    3.9260    0.0000 O.3     1  UNL1       -0.3841
     16 O           4.2690    0.9260    0.0000 O.3     1  UNL1       -0.3402
     17 O           4.2690    2.9260    0.0000 O.3     1  UNL1       -0.3744
     18 O           5.1350   -0.5740    0.0000 O.3     1  UNL1       -0.3405
     19 O           2.5369   -0.0740    0.0000 O.3     1  UNL1       -0.3841
     20 O           2.5369   -2.0740    0.0000 O.3     1  UNL1       -0.3864
     21 O           4.2690   -3.0740    0.0000 O.3     1  UNL1       -0.3865
     22 O           6.8671   -1.5740    0.0000 O.3     1  UNL1       -0.3924
     23 C          20.0426   -0.1471    0.0000 C.3     1  UNL1        0.0469
     24 C          20.0464    0.8529    0.0000 C.3     1  UNL1        0.0791
     25 C          19.1823    1.3563    0.0000 C.3     1  UNL1       -0.0010
     26 C          18.3144    0.8596    0.0000 C.3     1  UNL1        0.0145
     27 C          19.1746   -0.6437    0.0000 C.3     1  UNL1        0.1486
     28 C          17.4063    1.3700    0.0000 C.3     1  UNL1       -0.0043
     29 C          18.3105   -0.1404    0.0000 C.3     1  UNL1        0.1443
     30 C          20.9876   -0.4554    0.0000 C.3     1  UNL1        0.0288
     31 C          20.9938    1.1540    0.0000 C.3     1  UNL1       -0.0224
     32 C          21.5743    0.3470    0.0000 C.3     1  UNL1       -0.0402
     33 C          19.2024    2.3977    0.0000 C.3     1  UNL1       -0.0286
     34 C          20.0387   -1.1470    0.0000 C.3     1  UNL1       -0.0527
     35 C          17.4023    2.4116    0.0000 C.2     1  UNL1       -0.0647
     36 C          16.4773    0.8095    0.0000 C.3     1  UNL1       -0.0412
     37 C          18.3064    2.9289    0.0000 C.2     1  UNL1       -0.0838
     38 C          17.4102    0.3700    0.0000 C.3     1  UNL1       -0.0555
     39 C          16.4690    2.9649    0.0000 C.3     1  UNL1       -0.0047
     40 C          21.7293   -1.1261    0.0000 C.2     1  UNL1        0.1341
     41 C          15.5315    1.3410    0.0000 C.3     1  UNL1       -0.0254
     42 C          15.5273    2.4260    0.0000 C.3     1  UNL1        0.0654
     43 C          22.6810   -0.8191    0.0000 C.3     1  UNL1       -0.0058
     44 C          19.6674   -2.5117    0.0000 C.2     1  UNL1        0.3077
     45 C          17.4387   -1.6370    0.0000 C.2     1  UNL1        0.3043
     46 C          19.1641   -3.3758    0.0000 C.3     1  UNL1        0.0473
     47 C          13.7953    2.4260    0.0000 C.3     1  UNL1        0.1624
     48 C          16.5708   -2.1337    0.0000 C.3     1  UNL1        0.0332
     49 C          18.1642   -3.3719    0.0000 C.3     1  UNL1       -0.0367
     50 C          13.7953    1.4260    0.0000 C.3     1  UNL1        0.0272
     51 C          12.9292    0.9260    0.0000 C.3     1  UNL1        0.0915
     52 C          12.0632    2.4260    0.0000 C.3     1  UNL1        0.0875
     53 C          12.0632    1.4260    0.0000 C.3     1  UNL1        0.1137
     54 C          17.6609   -4.2360    0.0000 C.3     1  UNL1       -0.0622
     55 C          17.6675   -2.5040    0.0000 C.3     1  UNL1       -0.0622
     56 C          11.1972    2.9260    0.0000 C.3     1  UNL1       -0.0361
     57 C          10.3312    1.4260    0.0000 C.3     1  UNL1        0.1626
     58 C          13.7953   -0.5740    0.0000 C.3     1  UNL1        0.0369
     59 C           9.4651    0.9260    0.0000 C.3     1  UNL1        0.0272
     60 C           8.5991    1.4260    0.0000 C.3     1  UNL1        0.0915
     61 C           9.4651    2.9260    0.0000 C.3     1  UNL1        0.0875
     62 C           8.5991    2.4260    0.0000 C.3     1  UNL1        0.1138
     63 C           9.4651    3.9260    0.0000 C.3     1  UNL1       -0.0361
     64 C           6.8671    2.4260    0.0000 C.3     1  UNL1        0.1883
     65 C           7.7331   -0.0740    0.0000 C.3     1  UNL1        0.0369
     66 C           6.0010    2.9260    0.0000 C.3     1  UNL1        0.1344
     67 C           5.1350    2.4260    0.0000 C.3     1  UNL1        0.1174
     68 C           5.1350    1.4260    0.0000 C.3     1  UNL1        0.1162
     69 C           6.0010    0.9260    0.0000 C.3     1  UNL1        0.0877
     70 C           6.0010   -0.0740    0.0000 C.3     1  UNL1       -0.0360
     71 C           4.2690   -0.0740    0.0000 C.3     1  UNL1        0.1884
     72 C           3.4030   -0.5740    0.0000 C.3     1  UNL1        0.1341
     73 C           3.4030   -1.5740    0.0000 C.3     1  UNL1        0.1141
     74 C           4.2690   -2.0740    0.0000 C.3     1  UNL1        0.1119
     75 C           5.1350   -1.5740    0.0000 C.3     1  UNL1        0.1130
     76 C           3.4030    2.4260    0.0000 C.3     1  UNL1        0.0370
     77 C           6.0010   -2.0740    0.0000 C.3     1  UNL1        0.0730
     78 H          19.9233    1.7727    0.0000 H       1  UNL1        0.0336
     79 H          19.0489    0.4318    0.0000 H       1  UNL1        0.0350
     80 H          18.6365   -0.9516    0.0000 H       1  UNL1        0.0778
     81 H          17.7748    0.1717    0.0000 H       1  UNL1        0.0775
     82 H          20.6767   -0.9918    0.0000 H       1  UNL1        0.0385
     83 H          21.5324    1.4612    0.0000 H       1  UNL1        0.0293
     84 H          20.7450    1.7219    0.0000 H       1  UNL1        0.0293
     85 H          22.0336   -0.0695    0.0000 H       1  UNL1        0.0273
     86 H          22.0368    0.7600    0.0000 H       1  UNL1        0.0273
     87 H          19.8111    2.2799    0.0000 H       1  UNL1        0.0311
     88 H          19.4227    2.9773    0.0000 H       1  UNL1        0.0311
     89 H          19.4187   -1.1447    0.0000 H       1  UNL1        0.0237
     90 H          20.0363   -1.7670    0.0000 H       1  UNL1        0.0237
     91 H          20.6587   -1.1494    0.0000 H       1  UNL1        0.0237
     92 H          16.0856    0.3289    0.0000 H       1  UNL1        0.0274
     93 H          16.8837    0.3412    0.0000 H       1  UNL1        0.0274
     94 H          18.3112    3.5489    0.0000 H       1  UNL1        0.0572
     95 H          20.5884    2.1608    0.0000 H       1  UNL1        0.2102
     96 H          16.7902    0.3676    0.0000 H       1  UNL1        0.0238
     97 H          17.4126   -0.2500    0.0000 H       1  UNL1        0.0238
     98 H          18.0302    0.3724    0.0000 H       1  UNL1        0.0238
     99 H          16.8718    3.4362    0.0000 H       1  UNL1        0.0335
    100 H          16.0736    3.4424    0.0000 H       1  UNL1        0.0335
    101 H          14.9202    1.4448    0.0000 H       1  UNL1        0.0290
    102 H          15.3247    0.7566    0.0000 H       1  UNL1        0.0290
    103 H          15.5285    3.0460    0.0000 H       1  UNL1        0.0600
    104 H          22.8714   -1.4092    0.0000 H       1  UNL1        0.0306
    105 H          23.2711   -0.6288    0.0000 H       1  UNL1        0.0306
    106 H          22.4907   -0.2291    0.0000 H       1  UNL1        0.0306
    107 H          19.0541   -3.9859    0.0000 H       1  UNL1        0.0380
    108 H          19.7459   -3.5900    0.0000 H       1  UNL1        0.0380
    109 H          14.3322    2.1160    0.0000 H       1  UNL1        0.0910
    110 H          16.2629   -1.5956    0.0000 H       1  UNL1        0.0342
    111 H          16.0327   -2.4416    0.0000 H       1  UNL1        0.0342
    112 H          16.8787   -2.6718    0.0000 H       1  UNL1        0.0342
    113 H          18.4721   -3.9101    0.0000 H       1  UNL1        0.0301
    114 H          14.0073    0.8434    0.0000 H       1  UNL1        0.0340
    115 H          14.4058    1.5337    0.0000 H       1  UNL1        0.0340
    116 H          12.3923    0.6160    0.0000 H       1  UNL1        0.0624
    117 H          12.0632    3.0460    0.0000 H       1  UNL1        0.0621
    118 H          11.5263    1.7360    0.0000 H       1  UNL1        0.0649
    119 H          17.1251   -3.9240    0.0000 H       1  UNL1        0.0232
    120 H          17.3488   -4.7718    0.0000 H       1  UNL1        0.0232
    121 H          18.1966   -4.5481    0.0000 H       1  UNL1        0.0232
    122 H          18.2056   -2.1960    0.0000 H       1  UNL1        0.0232
    123 H          17.3595   -1.9659    0.0000 H       1  UNL1        0.0232
    124 H          17.1294   -2.8119    0.0000 H       1  UNL1        0.0232
    125 H          11.5072    3.4630    0.0000 H       1  UNL1        0.0255
    126 H          10.6603    3.2360    0.0000 H       1  UNL1        0.0255
    127 H          10.8872    2.3891    0.0000 H       1  UNL1        0.0255
    128 H          10.3312    0.8060    0.0000 H       1  UNL1        0.0910
    129 H          13.4853   -1.1109    0.0000 H       1  UNL1        0.0524
    130 H          14.3322   -0.8840    0.0000 H       1  UNL1        0.0524
    131 H          14.1053   -0.0370    0.0000 H       1  UNL1        0.0524
    132 H           9.0666    0.4511    0.0000 H       1  UNL1        0.0340
    133 H           9.8637    0.4511    0.0000 H       1  UNL1        0.0340
    134 H           8.5991    0.8060    0.0000 H       1  UNL1        0.0624
    135 H          10.0021    3.2360    0.0000 H       1  UNL1        0.0621
    136 H           8.5991    3.0460    0.0000 H       1  UNL1        0.0649
    137 H          10.0851    3.9260    0.0000 H       1  UNL1        0.0255
    138 H           9.4651    4.5460    0.0000 H       1  UNL1        0.0255
    139 H           8.8451    3.9260    0.0000 H       1  UNL1        0.0255
    140 H           6.8671    3.0460    0.0000 H       1  UNL1        0.0938
    141 H           5.4641    3.2360    0.0000 H       1  UNL1        0.0671
    142 H           7.1131   -0.0740    0.0000 H       1  UNL1        0.0524
    143 H           7.7331   -0.6940    0.0000 H       1  UNL1        0.0524
    144 H           8.3531   -0.0740    0.0000 H       1  UNL1        0.0524
    145 H           4.5981    2.1160    0.0000 H       1  UNL1        0.0650
    146 H           6.0828    1.1160    0.0000 H       1  UNL1        0.0650
    147 H           6.5380    0.6160    0.0000 H       1  UNL1        0.0621
    148 H           5.3810   -0.0740    0.0000 H       1  UNL1        0.0255
    149 H           6.0010   -0.6940    0.0000 H       1  UNL1        0.0255
    150 H           6.6210   -0.0740    0.0000 H       1  UNL1        0.0255
    151 H           5.4641    4.2360    0.0000 H       1  UNL1        0.2101
    152 H           3.7320    0.2360    0.0000 H       1  UNL1        0.0938
    153 H           3.9650    0.0460    0.0000 H       1  UNL1        0.0671
    154 H           3.4030   -2.1940    0.0000 H       1  UNL1        0.0648
    155 H           4.8059   -2.3840    0.0000 H       1  UNL1        0.0647
    156 H           5.6720   -1.2640    0.0000 H       1  UNL1        0.0647
    157 H           3.0930    2.9630    0.0000 H       1  UNL1        0.0524
    158 H           2.8660    2.1160    0.0000 H       1  UNL1        0.0524
    159 H           3.7130    1.8891    0.0000 H       1  UNL1        0.0524
    160 H           5.6025   -2.5489    0.0000 H       1  UNL1        0.0584
    161 H           6.3996   -2.5489    0.0000 H       1  UNL1        0.0584
    162 H           2.0000   -0.3840    0.0000 H       1  UNL1        0.2101
    163 H           2.5369   -2.6940    0.0000 H       1  UNL1        0.2100
    164 H           4.8059   -3.3840    0.0000 H       1  UNL1        0.2100
    165 H           7.4040   -1.8840    0.0000 H       1  UNL1        0.2095
@<TRIPOS>BOND
     1    24     1    1
     2     1    95    1
     3    27     2    1
     4     2    44    1
     5    29     3    1
     6     3    45    1
     7    42     4    1
     8    47     4    1
     9     5    40    2
    10     6    44    2
    11     7    45    2
    12     8    47    1
    13     8    52    1
    14    51     9    1
    15     9    58    1
    16    53    10    1
    17    57    10    1
    18    11    57    1
    19    11    61    1
    20    60    12    1
    21    12    65    1
    22    62    13    1
    23    64    13    1
    24    14    64    1
    25    14    69    1
    26    66    15    1
    27    15   151    1
    28    68    16    1
    29    71    16    1
    30    67    17    1
    31    17    76    1
    32    18    71    1
    33    18    75    1
    34    72    19    1
    35    19   162    1
    36    73    20    1
    37    20   163    1
    38    74    21    1
    39    21   164    1
    40    22    77    1
    41    22   165    1
    42    23    24    1
    43    23    27    1
    44    23    30    1
    45    23    34    1
    46    24    25    1
    47    24    31    1
    48    25    26    1
    49    25    33    1
    50    25    78    1
    51    26    28    1
    52    26    29    1
    53    26    79    1
    54    27    29    1
    55    27    80    1
    56    28    35    1
    57    28    36    1
    58    28    38    1
    59    29    81    1
    60    30    32    1
    61    30    40    1
    62    30    82    1
    63    31    32    1
    64    31    83    1
    65    31    84    1
    66    32    85    1
    67    32    86    1
    68    33    37    1
    69    33    87    1
    70    33    88    1
    71    34    89    1
    72    34    90    1
    73    34    91    1
    74    35    37    2
    75    35    39    1
    76    36    41    1
    77    36    92    1
    78    36    93    1
    79    37    94    1
    80    38    96    1
    81    38    97    1
    82    38    98    1
    83    39    42    1
    84    39    99    1
    85    39   100    1
    86    40    43    1
    87    41    42    1
    88    41   101    1
    89    41   102    1
    90    42   103    1
    91    43   104    1
    92    43   105    1
    93    43   106    1
    94    44    46    1
    95    45    48    1
    96    46    49    1
    97    46   107    1
    98    46   108    1
    99    47    50    1
   100    47   109    1
   101    48   110    1
   102    48   111    1
   103    48   112    1
   104    49    54    1
   105    49    55    1
   106    49   113    1
   107    50    51    1
   108    50   114    1
   109    50   115    1
   110    51    53    1
   111    51   116    1
   112    52    53    1
   113    52    56    1
   114    52   117    1
   115    53   118    1
   116    54   119    1
   117    54   120    1
   118    54   121    1
   119    55   122    1
   120    55   123    1
   121    55   124    1
   122    56   125    1
   123    56   126    1
   124    56   127    1
   125    57    59    1
   126    57   128    1
   127    58   129    1
   128    58   130    1
   129    58   131    1
   130    59    60    1
   131    59   132    1
   132    59   133    1
   133    60    62    1
   134    60   134    1
   135    61    62    1
   136    61    63    1
   137    61   135    1
   138    62   136    1
   139    63   137    1
   140    63   138    1
   141    63   139    1
   142    64    66    1
   143    64   140    1
   144    65   142    1
   145    65   143    1
   146    65   144    1
   147    66    67    1
   148    66   141    1
   149    67    68    1
   150    67   145    1
   151    68    69    1
   152    68   146    1
   153    69    70    1
   154    69   147    1
   155    70   148    1
   156    70   149    1
   157    70   150    1
   158    71    72    1
   159    71   152    1
   160    72    73    1
   161    72   153    1
   162    73    74    1
   163    73   154    1
   164    74    75    1
   165    74   155    1
   166    75    77    1
   167    75   156    1
   168    76   157    1
   169    76   158    1
   170    76   159    1
   171    77   160    1
   172    77   161    1
