@<TRIPOS>MOLECULE
IMPHY016177
 20 20 0 0 0
SMALL
GASTEIGER

@<TRIPOS>ATOM
      1 C           3.2799    1.4935    0.0000 C.3     1  UNL1       -0.0493
      2 C           4.2799    1.4935    0.0000 C.3     1  UNL1       -0.0493
      3 C           2.5728    0.7864    0.0000 C.3     1  UNL1       -0.0345
      4 C           4.9870    0.7864    0.0000 C.3     1  UNL1       -0.0345
      5 C           2.5728   -0.2136    0.0000 C.2     1  UNL1       -0.0840
      6 C           4.9870   -0.2136    0.0000 C.2     1  UNL1       -0.0840
      7 C           3.2799   -0.9207    0.0000 C.2     1  UNL1       -0.0660
      8 C           4.2799   -0.9207    0.0000 C.2     1  UNL1       -0.0660
      9 H           3.4404    2.0924    0.0000 H       1  UNL1        0.0268
     10 H           2.7430    1.8035    0.0000 H       1  UNL1        0.0268
     11 H           4.8168    1.8035    0.0000 H       1  UNL1        0.0268
     12 H           4.1194    2.0924    0.0000 H       1  UNL1        0.0268
     13 H           2.2628    1.3233    0.0000 H       1  UNL1        0.0307
     14 H           1.9739    0.6259    0.0000 H       1  UNL1        0.0307
     15 H           5.5859    0.6259    0.0000 H       1  UNL1        0.0307
     16 H           5.2970    1.3233    0.0000 H       1  UNL1        0.0307
     17 H           2.0000   -0.4509    0.0000 H       1  UNL1        0.0572
     18 H           5.5598   -0.4509    0.0000 H       1  UNL1        0.0572
     19 H           3.0426   -1.4935    0.0000 H       1  UNL1        0.0614
     20 H           4.5172   -1.4935    0.0000 H       1  UNL1        0.0614
@<TRIPOS>BOND
     1     1     2    1
     2     1     3    1
     3     1     9    1
     4     1    10    1
     5     2     4    1
     6     2    11    1
     7     2    12    1
     8     3     5    1
     9     3    13    1
    10     3    14    1
    11     4     6    1
    12     4    15    1
    13     4    16    1
    14     5     7    2
    15     5    17    1
    16     6     8    2
    17     6    18    1
    18     7     8    1
    19     7    19    1
    20     8    20    1
