@<TRIPOS>MOLECULE
IMPHY004394
 72 74 0 0 0
SMALL
GASTEIGER

@<TRIPOS>ATOM
      1 O           2.0000   -4.8465    0.0000 O.3     1  UNL1       -0.3915
      2 C           5.4641    1.1535    0.0000 C.3     1  UNL1       -0.0225
      3 C           6.4103    1.4582    0.0000 C.3     1  UNL1       -0.0325
      4 C           5.4641    0.1535    0.0000 C.3     1  UNL1       -0.0139
      5 C           6.9939    0.6535    0.0000 C.3     1  UNL1       -0.0489
      6 C           6.4103   -0.1512    0.0000 C.3     1  UNL1       -0.0457
      7 C           4.5981    1.6535    0.0000 C.3     1  UNL1       -0.0465
      8 C           6.7210    2.4087    0.0000 C.3     1  UNL1       -0.0405
      9 C           4.5981   -0.3465    0.0000 C.2     1  UNL1       -0.0659
     10 C           5.4641    2.1535    0.0000 C.3     1  UNL1       -0.0588
     11 C           3.7320    1.1535    0.0000 C.3     1  UNL1       -0.0488
     12 C           3.7320    0.1535    0.0000 C.3     1  UNL1       -0.0312
     13 C           7.6995    2.6150    0.0000 C.3     1  UNL1       -0.0502
     14 C           6.0531    3.1530    0.0000 C.3     1  UNL1       -0.0621
     15 C           4.5981   -1.3465    0.0000 C.2     1  UNL1       -0.0620
     16 C           8.0102    3.5655    0.0000 C.3     1  UNL1       -0.0526
     17 C           8.9887    3.7717    0.0000 C.3     1  UNL1       -0.0507
     18 C           3.7320   -1.8465    0.0000 C.2     1  UNL1       -0.0583
     19 C           9.2993    4.7222    0.0000 C.3     1  UNL1       -0.0467
     20 C           3.7320   -2.8465    0.0000 C.2     1  UNL1       -0.0423
     21 C           2.8660   -3.3465    0.0000 C.3     1  UNL1       -0.0013
     22 C          10.2778    4.9284    0.0000 C.3     1  UNL1       -0.0627
     23 C           8.6315    5.4665    0.0000 C.3     1  UNL1       -0.0627
     24 C           4.5981   -3.3465    0.0000 C.2     1  UNL1       -0.0511
     25 C           2.8660   -4.3465    0.0000 C.3     1  UNL1        0.0595
     26 C           4.5981   -4.3465    0.0000 C.3     1  UNL1       -0.0256
     27 C           3.7320   -4.8465    0.0000 C.3     1  UNL1       -0.0226
     28 C           5.4641   -2.8465    0.0000 C.2     1  UNL1       -0.0952
     29 H           7.2500    1.5901    0.0000 H       1  UNL1        0.0309
     30 H           5.5540   -0.6917    0.0000 H       1  UNL1        0.0351
     31 H           7.4548    0.2388    0.0000 H       1  UNL1        0.0268
     32 H           7.4548    1.0682    0.0000 H       1  UNL1        0.0268
     33 H           6.1593   -0.7182    0.0000 H       1  UNL1        0.0271
     34 H           6.9477   -0.4605    0.0000 H       1  UNL1        0.0271
     35 H           4.9966    2.1284    0.0000 H       1  UNL1        0.0271
     36 H           4.1996    2.1284    0.0000 H       1  UNL1        0.0271
     37 H           6.1143    2.2809    0.0000 H       1  UNL1        0.0301
     38 H           6.0841    2.1535    0.0000 H       1  UNL1        0.0235
     39 H           5.4641    2.7735    0.0000 H       1  UNL1        0.0235
     40 H           4.8441    2.1535    0.0000 H       1  UNL1        0.0235
     41 H           3.5200    1.7361    0.0000 H       1  UNL1        0.0268
     42 H           3.1215    1.0458    0.0000 H       1  UNL1        0.0268
     43 H           3.1215    0.2611    0.0000 H       1  UNL1        0.0310
     44 H           3.5200   -0.4291    0.0000 H       1  UNL1        0.0310
     45 H           7.7201    1.9953    0.0000 H       1  UNL1        0.0268
     46 H           8.3133    2.5276    0.0000 H       1  UNL1        0.0268
     47 H           6.5146    3.5671    0.0000 H       1  UNL1        0.0233
     48 H           5.6391    3.6145    0.0000 H       1  UNL1        0.0233
     49 H           5.5917    2.7390    0.0000 H       1  UNL1        0.0233
     50 H           5.1350   -1.6565    0.0000 H       1  UNL1        0.0617
     51 H           7.9896    4.1851    0.0000 H       1  UNL1        0.0265
     52 H           7.3963    3.6528    0.0000 H       1  UNL1        0.0265
     53 H           9.0092    3.1520    0.0000 H       1  UNL1        0.0268
     54 H           9.6025    3.6843    0.0000 H       1  UNL1        0.0268
     55 H           3.1951   -1.5365    0.0000 H       1  UNL1        0.0620
     56 H           9.4919    5.3115    0.0000 H       1  UNL1        0.0295
     57 H           2.6540   -2.7639    0.0000 H       1  UNL1        0.0338
     58 H           2.2554   -3.4542    0.0000 H       1  UNL1        0.0338
     59 H          10.4057    4.3218    0.0000 H       1  UNL1        0.0232
     60 H          10.8845    5.0563    0.0000 H       1  UNL1        0.0232
     61 H          10.1500    5.5351    0.0000 H       1  UNL1        0.0232
     62 H           9.0929    5.8806    0.0000 H       1  UNL1        0.0232
     63 H           8.2174    5.9280    0.0000 H       1  UNL1        0.0232
     64 H           8.1700    5.0524    0.0000 H       1  UNL1        0.0232
     65 H           2.8660   -4.9665    0.0000 H       1  UNL1        0.0596
     66 H           4.8101   -4.9291    0.0000 H       1  UNL1        0.0314
     67 H           5.2087   -4.2388    0.0000 H       1  UNL1        0.0314
     68 H           3.3335   -5.3215    0.0000 H       1  UNL1        0.0293
     69 H           4.1306   -5.3215    0.0000 H       1  UNL1        0.0293
     70 H           6.0010   -3.1565    0.0000 H       1  UNL1        0.0538
     71 H           5.4641   -2.2265    0.0000 H       1  UNL1        0.0538
     72 H           2.0000   -5.4665    0.0000 H       1  UNL1        0.2098
@<TRIPOS>BOND
     1    25     1    1
     2     1    72    1
     3     2     3    1
     4     2     4    1
     5     2     7    1
     6     2    10    1
     7     3     5    1
     8     3     8    1
     9     3    29    1
    10     4     6    1
    11     4     9    1
    12     4    30    1
    13     5     6    1
    14     5    31    1
    15     5    32    1
    16     6    33    1
    17     6    34    1
    18     7    11    1
    19     7    35    1
    20     7    36    1
    21     8    13    1
    22     8    14    1
    23     8    37    1
    24     9    12    1
    25     9    15    2
    26    10    38    1
    27    10    39    1
    28    10    40    1
    29    11    12    1
    30    11    41    1
    31    11    42    1
    32    12    43    1
    33    12    44    1
    34    13    16    1
    35    13    45    1
    36    13    46    1
    37    14    47    1
    38    14    48    1
    39    14    49    1
    40    15    18    1
    41    15    50    1
    42    16    17    1
    43    16    51    1
    44    16    52    1
    45    17    19    1
    46    17    53    1
    47    17    54    1
    48    18    20    2
    49    18    55    1
    50    19    22    1
    51    19    23    1
    52    19    56    1
    53    20    21    1
    54    20    24    1
    55    21    25    1
    56    21    57    1
    57    21    58    1
    58    22    59    1
    59    22    60    1
    60    22    61    1
    61    23    62    1
    62    23    63    1
    63    23    64    1
    64    24    26    1
    65    24    28    2
    66    25    27    1
    67    25    65    1
    68    26    27    1
    69    26    66    1
    70    26    67    1
    71    27    68    1
    72    27    69    1
    73    28    70    1
    74    28    71    1
