@<TRIPOS>MOLECULE
IMPHY014559
 67 68 0 0 0
SMALL
GASTEIGER

@<TRIPOS>ATOM
      1 O           2.8658    2.0004    0.0000 O.3     1  UNL1       -0.3612
      2 O           3.9554    0.2339    0.0000 O.3     1  UNL1       -0.4584
      3 O           7.1962    1.5000    0.0000 O.3     1  UNL1       -0.4570
      4 O           7.1962   -0.5000    0.0000 O.3     1  UNL1       -0.4499
      5 O           3.3633   -1.3939    0.0000 O.2     1  UNL1       -0.2512
      6 O           8.0622    0.0000    0.0000 O.2     1  UNL1       -0.2512
      7 O           6.3301   -2.0000    0.0000 O.2     1  UNL1       -0.2453
      8 C           2.8660    1.0000    0.0000 C.3     1  UNL1        0.0971
      9 C           3.7320    1.5000    0.0000 C.3     1  UNL1        0.1252
     10 C           4.5981    1.0000    0.0000 C.3     1  UNL1        0.1382
     11 C           5.4641    1.5000    0.0000 C.3     1  UNL1        0.0420
     12 C           2.8660    0.0000    0.0000 C.3     1  UNL1       -0.0180
     13 C           2.0000    0.5000    0.0000 C.3     1  UNL1       -0.0332
     14 C           6.3301    1.0000    0.0000 C.3     1  UNL1        0.1501
     15 C           5.4641    2.5000    0.0000 C.3     1  UNL1       -0.0369
     16 C           3.7320   -0.5000    0.0000 C.3     1  UNL1       -0.0317
     17 C           6.3301    0.0000    0.0000 C.3     1  UNL1        0.1612
     18 C           5.4641   -0.5000    0.0000 C.2     1  UNL1       -0.0330
     19 C           4.5981    0.0000    0.0000 C.2     1  UNL1       -0.0814
     20 C           6.3301    3.0000    0.0000 C.3     1  UNL1       -0.0622
     21 C           4.5981    3.0000    0.0000 C.3     1  UNL1       -0.0622
     22 C           4.1292   -0.7509    0.0000 C.2     1  UNL1        0.3043
     23 C           5.9642   -1.3660    0.0000 C.3     1  UNL1       -0.0402
     24 C           8.0622    1.0000    0.0000 C.2     1  UNL1        0.3043
     25 C           4.7722   -1.5168    0.0000 C.3     1  UNL1        0.0332
     26 C           7.1962   -1.5000    0.0000 C.2     1  UNL1        0.3352
     27 C           8.9282    1.5000    0.0000 C.3     1  UNL1        0.0332
     28 C           8.0622   -2.0000    0.0000 C.2     1  UNL1        0.0294
     29 C           8.0622   -3.0000    0.0000 C.3     1  UNL1       -0.0333
     30 C           8.9282   -1.5000    0.0000 C.2     1  UNL1       -0.0774
     31 C           9.7942   -2.0000    0.0000 C.3     1  UNL1       -0.0461
     32 H           4.1572    2.2361    0.0000 H       1  UNL1        0.0662
     33 H           4.9966    0.5251    0.0000 H       1  UNL1        0.0765
     34 H           6.0010    1.8100    0.0000 H       1  UNL1        0.0377
     35 H           2.2554    0.1077    0.0000 H       1  UNL1        0.0297
     36 H           2.6540   -0.5826    0.0000 H       1  UNL1        0.0297
     37 H           1.6900    1.0369    0.0000 H       1  UNL1        0.0258
     38 H           1.4631    0.1900    0.0000 H       1  UNL1        0.0258
     39 H           2.3100   -0.0369    0.0000 H       1  UNL1        0.0258
     40 H           6.8671    0.6900    0.0000 H       1  UNL1        0.0779
     41 H           5.4641    3.1200    0.0000 H       1  UNL1        0.0300
     42 H           3.3335   -0.9749    0.0000 H       1  UNL1        0.0308
     43 H           4.1306   -0.9749    0.0000 H       1  UNL1        0.0308
     44 H           6.3301   -0.6200    0.0000 H       1  UNL1        0.0820
     45 H           4.9966    0.4749    0.0000 H       1  UNL1        0.0573
     46 H           6.6401    2.4631    0.0000 H       1  UNL1        0.0232
     47 H           6.8671    3.3100    0.0000 H       1  UNL1        0.0232
     48 H           6.0201    3.5369    0.0000 H       1  UNL1        0.0232
     49 H           4.9081    3.5369    0.0000 H       1  UNL1        0.0232
     50 H           4.0611    3.3100    0.0000 H       1  UNL1        0.0232
     51 H           4.2881    2.4631    0.0000 H       1  UNL1        0.0232
     52 H           5.4273   -1.6760    0.0000 H       1  UNL1        0.0276
     53 H           6.2742   -1.9029    0.0000 H       1  UNL1        0.0276
     54 H           6.5011   -1.0559    0.0000 H       1  UNL1        0.0276
     55 H           4.2973   -1.9155    0.0000 H       1  UNL1        0.0342
     56 H           5.1708   -1.9917    0.0000 H       1  UNL1        0.0342
     57 H           5.2470   -1.1182    0.0000 H       1  UNL1        0.0342
     58 H           9.2382    0.9631    0.0000 H       1  UNL1        0.0342
     59 H           9.4651    1.8100    0.0000 H       1  UNL1        0.0342
     60 H           8.6182    2.0369    0.0000 H       1  UNL1        0.0342
     61 H           7.4422   -3.0000    0.0000 H       1  UNL1        0.0280
     62 H           8.0622   -3.6200    0.0000 H       1  UNL1        0.0280
     63 H           8.6822   -3.0000    0.0000 H       1  UNL1        0.0280
     64 H           8.9282   -0.8800    0.0000 H       1  UNL1        0.0574
     65 H           9.4842   -2.5369    0.0000 H       1  UNL1        0.0272
     66 H          10.3312   -2.3100    0.0000 H       1  UNL1        0.0272
     67 H          10.1042   -1.4631    0.0000 H       1  UNL1        0.0272
@<TRIPOS>BOND
     1     1     8    1
     2     1     9    1
     3    10     2    1
     4     2    22    1
     5    14     3    1
     6     3    24    1
     7    17     4    1
     8     4    26    1
     9     5    22    2
    10     6    24    2
    11     7    26    2
    12     8     9    1
    13     8    12    1
    14     8    13    1
    15     9    10    1
    16     9    32    1
    17    10    11    1
    18    10    33    1
    19    11    14    1
    20    11    15    1
    21    11    34    1
    22    12    16    1
    23    12    35    1
    24    12    36    1
    25    13    37    1
    26    13    38    1
    27    13    39    1
    28    14    17    1
    29    14    40    1
    30    15    20    1
    31    15    21    1
    32    15    41    1
    33    16    19    1
    34    16    42    1
    35    16    43    1
    36    17    18    1
    37    17    44    1
    38    18    19    2
    39    18    23    1
    40    19    45    1
    41    20    46    1
    42    20    47    1
    43    20    48    1
    44    21    49    1
    45    21    50    1
    46    21    51    1
    47    22    25    1
    48    23    52    1
    49    23    53    1
    50    23    54    1
    51    24    27    1
    52    25    55    1
    53    25    56    1
    54    25    57    1
    55    26    28    1
    56    27    58    1
    57    27    59    1
    58    27    60    1
    59    28    29    1
    60    28    30    2
    61    29    61    1
    62    29    62    1
    63    29    63    1
    64    30    31    1
    65    30    64    1
    66    31    65    1
    67    31    66    1
    68    31    67    1
