@<TRIPOS>MOLECULE
IMPHY017283
 35 35 0 0 0
SMALL
GASTEIGER

@<TRIPOS>ATOM
      1 O           2.1045   -0.7169    0.0000 O.3     1  UNL1       -0.3752
      2 O           4.3917   -2.3786    0.0000 O.3     1  UNL1       -0.3752
      3 O           2.9782    1.9718    0.0000 O.3     1  UNL1       -0.3752
      4 O           6.6789   -0.7169    0.0000 O.3     1  UNL1       -0.3752
      5 O           5.8052    1.9718    0.0000 O.3     1  UNL1       -0.3752
      6 C           2.0000    0.2777    0.0000 C.3     1  UNL1        0.0711
      7 C           3.4136   -2.1707    0.0000 C.3     1  UNL1        0.0711
      8 C           2.6045   -1.5829    0.0000 C.3     1  UNL1        0.0711
      9 C           2.3090    1.2287    0.0000 C.3     1  UNL1        0.0711
     10 C           3.8917    2.3786    0.0000 C.3     1  UNL1        0.0711
     11 C           6.7834    0.2777    0.0000 C.3     1  UNL1        0.0711
     12 C           4.8917    2.3786    0.0000 C.3     1  UNL1        0.0711
     13 C           5.3698   -2.1707    0.0000 C.3     1  UNL1        0.0711
     14 C           6.4744    1.2287    0.0000 C.3     1  UNL1        0.0711
     15 C           6.1789   -1.5829    0.0000 C.3     1  UNL1        0.0711
     16 H           1.5250    0.6762    0.0000 H       1  UNL1        0.0583
     17 H           2.6166    0.2128    0.0000 H       1  UNL1        0.0583
     18 H           2.8878   -2.4992    0.0000 H       1  UNL1        0.0583
     19 H           3.6657   -1.6043    0.0000 H       1  UNL1        0.0583
     20 H           1.9906   -1.6692    0.0000 H       1  UNL1        0.0583
     21 H           3.0653   -1.1680    0.0000 H       1  UNL1        0.0583
     22 H           7.3308   -0.0134    0.0000 H       1  UNL1        0.0583
     23 H           6.1668    0.2128    0.0000 H       1  UNL1        0.0583
     24 H           4.0206    1.7721    0.0000 H       1  UNL1        0.0583
     25 H           4.1240    2.9534    0.0000 H       1  UNL1        0.0583
     26 H           2.0372    1.7860    0.0000 H       1  UNL1        0.0583
     27 H           2.8460    0.9187    0.0000 H       1  UNL1        0.0583
     28 H           5.9374    0.9187    0.0000 H       1  UNL1        0.0583
     29 H           7.0929    1.1855    0.0000 H       1  UNL1        0.0583
     30 H           5.3377    2.8093    0.0000 H       1  UNL1        0.0583
     31 H           4.7628    1.7721    0.0000 H       1  UNL1        0.0583
     32 H           5.7181   -1.1680    0.0000 H       1  UNL1        0.0583
     33 H           6.3288   -2.1845    0.0000 H       1  UNL1        0.0583
     34 H           5.2622   -2.7813    0.0000 H       1  UNL1        0.0583
     35 H           5.1177   -1.6043    0.0000 H       1  UNL1        0.0583
@<TRIPOS>BOND
     1     1     6    1
     2     1     8    1
     3     2     7    1
     4     2    13    1
     5     3     9    1
     6     3    10    1
     7     4    11    1
     8     4    15    1
     9     5    12    1
    10     5    14    1
    11     6     9    1
    12     6    16    1
    13     6    17    1
    14     7     8    1
    15     7    18    1
    16     7    19    1
    17     8    20    1
    18     8    21    1
    19     9    26    1
    20     9    27    1
    21    10    12    1
    22    10    24    1
    23    10    25    1
    24    11    14    1
    25    11    22    1
    26    11    23    1
    27    12    30    1
    28    12    31    1
    29    13    15    1
    30    13    34    1
    31    13    35    1
    32    14    28    1
    33    14    29    1
    34    15    32    1
    35    15    33    1
