@<TRIPOS>MOLECULE
IMPHY012613
 25 26 0 0 0
SMALL
GASTEIGER

@<TRIPOS>ATOM
      1 O           2.0000    0.1900    0.0000 O.2     1  UNL1       -0.2960
      2 C           6.3306   -0.3100    0.0000 C.3     1  UNL1       -0.0250
      3 C           5.4641   -0.8100    0.0000 C.3     1  UNL1       -0.0283
      4 C           5.4641    0.1900    0.0000 C.3     1  UNL1       -0.0135
      5 C           4.5981   -1.3100    0.0000 C.3     1  UNL1       -0.0451
      6 C           6.8306   -1.1760    0.0000 C.3     1  UNL1       -0.0590
      7 C           6.8306    0.5560    0.0000 C.3     1  UNL1       -0.0590
      8 C           4.5981    0.6900    0.0000 C.2     1  UNL1       -0.0739
      9 C           3.7320   -0.8100    0.0000 C.3     1  UNL1       -0.0247
     10 C           3.7320    0.1900    0.0000 C.2     1  UNL1       -0.0118
     11 C           2.8660    0.6900    0.0000 C.2     1  UNL1        0.1460
     12 H           5.7740   -1.3470    0.0000 H       1  UNL1        0.0312
     13 H           5.7740    0.7270    0.0000 H       1  UNL1        0.0351
     14 H           4.1996   -1.7850    0.0000 H       1  UNL1        0.0271
     15 H           4.9966   -1.7850    0.0000 H       1  UNL1        0.0271
     16 H           6.2937   -1.4860    0.0000 H       1  UNL1        0.0235
     17 H           7.1406   -1.7130    0.0000 H       1  UNL1        0.0235
     18 H           7.3676   -0.8660    0.0000 H       1  UNL1        0.0235
     19 H           7.3676    0.2460    0.0000 H       1  UNL1        0.0235
     20 H           7.1406    1.0930    0.0000 H       1  UNL1        0.0235
     21 H           6.2937    0.8660    0.0000 H       1  UNL1        0.0235
     22 H           4.5981    1.3100    0.0000 H       1  UNL1        0.0579
     23 H           3.1215   -0.7023    0.0000 H       1  UNL1        0.0314
     24 H           3.5200   -1.3926    0.0000 H       1  UNL1        0.0314
     25 H           2.8660    1.3100    0.0000 H       1  UNL1        0.1078
@<TRIPOS>BOND
     1     1    11    2
     2     2     3    1
     3     2     4    1
     4     2     6    1
     5     2     7    1
     6     3     4    1
     7     3     5    1
     8     3    12    1
     9     4     8    1
    10     4    13    1
    11     5     9    1
    12     5    14    1
    13     5    15    1
    14     6    16    1
    15     6    17    1
    16     6    18    1
    17     7    19    1
    18     7    20    1
    19     7    21    1
    20     8    10    2
    21     8    22    1
    22     9    10    1
    23     9    23    1
    24     9    24    1
    25    10    11    1
    26    11    25    1
