@<TRIPOS>MOLECULE
IMPHY014403
 38 40 0 0 0
SMALL
GASTEIGER

@<TRIPOS>ATOM
      1 O           6.3981   -0.7123    0.0000 O.2     1  UNL1       -0.4542
      2 O           4.6497    2.3223    0.0000 O.3     1  UNL1       -0.4942
      3 O           2.8680   -0.7364    0.0000 O.3     1  UNL1       -0.4949
      4 O           6.3981    2.2877    0.0000 O.2     1  UNL1       -0.2869
      5 O           7.2641   -2.2123    0.0000 O.3     1  UNL1       -0.5059
      6 O          10.7282   -0.2123    0.0000 O.3     1  UNL1       -0.5033
      7 O          10.7282   -2.2123    0.0000 O.3     1  UNL1       -0.5032
      8 C           5.5320    0.7877    0.0000 C.ar    1  UNL1        0.1057
      9 C           5.5320   -0.2123    0.0000 C.ar    1  UNL1        0.1463
     10 C           7.2641   -0.2123    0.0000 C.ar    1  UNL1        0.1428
     11 C           8.1301   -0.7123    0.0000 C.ar    1  UNL1        0.0624
     12 C           4.6381    1.3224    0.0000 C.ar    1  UNL1        0.1379
     13 C           6.3981    1.2877    0.0000 C.ar    1  UNL1        0.1966
     14 C           7.2641    0.7877    0.0000 C.ar    1  UNL1        0.0289
     15 C           4.6381   -0.7469    0.0000 C.ar    1  UNL1        0.0233
     16 C           3.7320   -0.2331    0.0000 C.ar    1  UNL1        0.1271
     17 C           3.7320    0.8085    0.0000 C.ar    1  UNL1        0.0227
     18 C           8.1301   -1.7123    0.0000 C.ar    1  UNL1        0.1312
     19 C           8.9962   -0.2123    0.0000 C.ar    1  UNL1       -0.0024
     20 C           9.8622   -0.7123    0.0000 C.ar    1  UNL1        0.1591
     21 C           8.9962   -2.2123    0.0000 C.ar    1  UNL1        0.0257
     22 C           9.8622   -1.7123    0.0000 C.ar    1  UNL1        0.1618
     23 C           3.7895    2.8323    0.0000 C.3     1  UNL1        0.0788
     24 C           2.0000   -0.2398    0.0000 C.3     1  UNL1        0.0788
     25 H           7.8010    1.0977    0.0000 H       1  UNL1        0.0693
     26 H           4.6453   -1.3669    0.0000 H       1  UNL1        0.0691
     27 H           3.1963    1.1206    0.0000 H       1  UNL1        0.0691
     28 H           8.9962    0.4077    0.0000 H       1  UNL1        0.0663
     29 H           8.9962   -2.8323    0.0000 H       1  UNL1        0.0692
     30 H           4.1057    3.3656    0.0000 H       1  UNL1        0.0660
     31 H           3.2562    3.1485    0.0000 H       1  UNL1        0.0660
     32 H           3.4733    2.2990    0.0000 H       1  UNL1        0.0660
     33 H           7.2641   -2.8323    0.0000 H       1  UNL1        0.2922
     34 H           2.3079    0.2983    0.0000 H       1  UNL1        0.0660
     35 H           1.4619    0.0681    0.0000 H       1  UNL1        0.0660
     36 H           1.6921   -0.7779    0.0000 H       1  UNL1        0.0660
     37 H          10.7282    0.4077    0.0000 H       1  UNL1        0.2923
     38 H          10.7282   -2.8323    0.0000 H       1  UNL1        0.2923
@<TRIPOS>BOND
     1     1     9   ar
     2     1    10   ar
     3     2    12    1
     4     2    23    1
     5     3    16    1
     6     3    24    1
     7     4    13    2
     8     5    18    1
     9     5    33    1
    10     6    20    1
    11     6    37    1
    12     7    22    1
    13     7    38    1
    14     8     9   ar
    15     8    12   ar
    16     8    13   ar
    17     9    15   ar
    18    10    11    1
    19    10    14   ar
    20    11    18   ar
    21    11    19   ar
    22    12    17   ar
    23    13    14   ar
    24    14    25    1
    25    15    16   ar
    26    15    26    1
    27    16    17   ar
    28    17    27    1
    29    18    21   ar
    30    19    20   ar
    31    19    28    1
    32    20    22   ar
    33    21    22   ar
    34    21    29    1
    35    23    30    1
    36    23    31    1
    37    23    32    1
    38    24    34    1
    39    24    35    1
    40    24    36    1
