@<TRIPOS>MOLECULE
IMPHY013138
 48 50 0 0 0
SMALL
GASTEIGER

@<TRIPOS>ATOM
      1 O           6.3580   -0.4226    0.0000 O.2     1  UNL1       -0.4542
      2 O           7.2564   -1.9087    0.0000 O.3     1  UNL1       -0.4943
      3 O           2.8660    1.6121    0.0000 O.3     1  UNL1       -0.4885
      4 O           2.8660   -0.3879    0.0000 O.3     1  UNL1       -0.4912
      5 O           4.5981    2.6121    0.0000 O.3     1  UNL1       -0.5027
      6 O          10.7282    0.0779    0.0000 O.3     1  UNL1       -0.4914
      7 O          10.7205   -1.9221    0.0000 O.3     1  UNL1       -0.4913
      8 O           6.3465    2.6467    0.0000 O.2     1  UNL1       -0.2869
      9 C           5.4641    1.1121    0.0000 C.ar    1  UNL1        0.1091
     10 C           5.4641    0.1121    0.0000 C.ar    1  UNL1        0.1465
     11 C           7.2641    0.0913    0.0000 C.ar    1  UNL1        0.1428
     12 C           8.1282   -0.4121    0.0000 C.ar    1  UNL1        0.0627
     13 C           6.3580    1.6467    0.0000 C.ar    1  UNL1        0.1967
     14 C           4.5981    1.6121    0.0000 C.ar    1  UNL1        0.1768
     15 C           7.2641    1.1329    0.0000 C.ar    1  UNL1        0.0289
     16 C           4.5981   -0.3879    0.0000 C.ar    1  UNL1        0.0270
     17 C           8.1244   -1.4121    0.0000 C.ar    1  UNL1        0.1344
     18 C           3.7320    1.1121    0.0000 C.ar    1  UNL1        0.2043
     19 C           3.7320    0.1121    0.0000 C.ar    1  UNL1        0.1687
     20 C           8.9962    0.0846    0.0000 C.ar    1  UNL1       -0.0021
     21 C           9.8602   -0.4188    0.0000 C.ar    1  UNL1        0.1624
     22 C           8.9884   -1.9154    0.0000 C.ar    1  UNL1        0.0261
     23 C           9.8564   -1.4188    0.0000 C.ar    1  UNL1        0.1650
     24 C           7.2526   -2.9087    0.0000 C.3     1  UNL1        0.0788
     25 C           2.0000    1.1121    0.0000 C.3     1  UNL1        0.0791
     26 C           2.8660   -1.3879    0.0000 C.3     1  UNL1        0.0790
     27 C          10.7320    1.0779    0.0000 C.3     1  UNL1        0.0790
     28 C          10.7166   -2.9221    0.0000 C.3     1  UNL1        0.0790
     29 H           7.7998    1.4450    0.0000 H       1  UNL1        0.0693
     30 H           4.5981   -1.0079    0.0000 H       1  UNL1        0.0692
     31 H           8.9985    0.7046    0.0000 H       1  UNL1        0.0663
     32 H           8.9860   -2.5354    0.0000 H       1  UNL1        0.0692
     33 H           4.0611    2.9221    0.0000 H       1  UNL1        0.2923
     34 H           6.6326   -2.9063    0.0000 H       1  UNL1        0.0660
     35 H           7.2502   -3.5287    0.0000 H       1  UNL1        0.0660
     36 H           7.8725   -2.9111    0.0000 H       1  UNL1        0.0660
     37 H           1.6900    1.6490    0.0000 H       1  UNL1        0.0660
     38 H           1.4631    0.8021    0.0000 H       1  UNL1        0.0660
     39 H           2.3100    0.5751    0.0000 H       1  UNL1        0.0660
     40 H           2.2460   -1.3879    0.0000 H       1  UNL1        0.0660
     41 H           2.8660   -2.0079    0.0000 H       1  UNL1        0.0660
     42 H           3.4860   -1.3879    0.0000 H       1  UNL1        0.0660
     43 H          11.3520    1.0755    0.0000 H       1  UNL1        0.0660
     44 H          10.7344    1.6979    0.0000 H       1  UNL1        0.0660
     45 H          10.1120    1.0803    0.0000 H       1  UNL1        0.0660
     46 H          10.0966   -2.9197    0.0000 H       1  UNL1        0.0660
     47 H          10.7142   -3.5421    0.0000 H       1  UNL1        0.0660
     48 H          11.3366   -2.9245    0.0000 H       1  UNL1        0.0660
@<TRIPOS>BOND
     1     1    10   ar
     2     1    11   ar
     3     2    17    1
     4     2    24    1
     5     3    18    1
     6     3    25    1
     7     4    19    1
     8     4    26    1
     9     5    14    1
    10     5    33    1
    11     6    21    1
    12     6    27    1
    13     7    23    1
    14     7    28    1
    15     8    13    2
    16     9    10   ar
    17     9    13   ar
    18     9    14   ar
    19    10    16   ar
    20    11    12    1
    21    11    15   ar
    22    12    17   ar
    23    12    20   ar
    24    13    15   ar
    25    14    18   ar
    26    15    29    1
    27    16    19   ar
    28    16    30    1
    29    17    22   ar
    30    18    19   ar
    31    20    21   ar
    32    20    31    1
    33    21    23   ar
    34    22    23   ar
    35    22    32    1
    36    24    34    1
    37    24    35    1
    38    24    36    1
    39    25    37    1
    40    25    38    1
    41    25    39    1
    42    26    40    1
    43    26    41    1
    44    26    42    1
    45    27    43    1
    46    27    44    1
    47    27    45    1
    48    28    46    1
    49    28    47    1
    50    28    48    1
