@<TRIPOS>MOLECULE
IMPHY006874
 34 36 0 0 0
SMALL
GASTEIGER

@<TRIPOS>ATOM
      1 O           3.6180    0.3029    0.0000 O.3     1  UNL1       -0.4490
      2 O           5.0854   -1.4508    0.0000 O.2     1  UNL1       -0.4668
      3 O           3.7474    2.1527    0.0000 O.2     1  UNL1       -0.2453
      4 C           2.8090   -0.2849    0.0000 C.3     1  UNL1        0.1508
      5 C           3.5522   -0.9540    0.0000 C.ar    1  UNL1        0.0408
      6 C           4.5032   -0.6450    0.0000 C.ar    1  UNL1        0.1160
      7 C           2.3090    1.2539    0.0000 C.2     1  UNL1        0.0368
      8 C           2.0000    0.3029    0.0000 C.2     1  UNL1       -0.0294
      9 C           2.5169    2.2321    0.0000 C.3     1  UNL1       -0.0177
     10 C           4.9572    0.2460    0.0000 C.3     1  UNL1        0.0268
     11 C           3.5547   -1.9481    0.0000 C.ar    1  UNL1       -0.0055
     12 C           3.4692    2.5373    0.0000 C.3     1  UNL1       -0.0303
     13 C           4.4126    1.0847    0.0000 C.2     1  UNL1       -0.0693
     14 C           3.3090    1.2539    0.0000 C.2     1  UNL1        0.3359
     15 C           4.3602    2.0833    0.0000 C.2     1  UNL1       -0.0843
     16 C           4.5004   -2.2545    0.0000 C.ar    1  UNL1        0.0954
     17 C           2.7467   -2.5373    0.0000 C.3     1  UNL1       -0.0363
     18 C           3.3188    0.7293    0.0000 C.3     1  UNL1       -0.0434
     19 H           2.2741   -0.9455    0.0000 H       1  UNL1        0.0833
     20 H           1.4103    0.1113    0.0000 H       1  UNL1        0.0617
     21 H           2.4323    2.8463    0.0000 H       1  UNL1        0.0318
     22 H           1.8973    2.2546    0.0000 H       1  UNL1        0.0318
     23 H           5.4524   -0.1271    0.0000 H       1  UNL1        0.0389
     24 H           5.4107    0.6688    0.0000 H       1  UNL1        0.0389
     25 H           3.8847    2.9975    0.0000 H       1  UNL1        0.0311
     26 H           3.1330    3.0582    0.0000 H       1  UNL1        0.0311
     27 H           4.8802    2.4210    0.0000 H       1  UNL1        0.0572
     28 H           4.6920   -2.8441    0.0000 H       1  UNL1        0.1032
     29 H           2.3814   -2.0363    0.0000 H       1  UNL1        0.0279
     30 H           2.2458   -2.9026    0.0000 H       1  UNL1        0.0279
     31 H           3.1120   -3.0382    0.0000 H       1  UNL1        0.0279
     32 H           3.1273    1.3190    0.0000 H       1  UNL1        0.0274
     33 H           2.7292    0.5377    0.0000 H       1  UNL1        0.0274
     34 H           3.5104    0.1396    0.0000 H       1  UNL1        0.0274
@<TRIPOS>BOND
     1     1     4    1
     2     1    14    1
     3     2     6   ar
     4     2    16   ar
     5     3    14    2
     6     4     5    1
     7     4     8    1
     8     4    19    1
     9     5     6   ar
    10     5    11   ar
    11     6    10    1
    12     7     8    2
    13     7     9    1
    14     7    14    1
    15     8    20    1
    16     9    12    1
    17     9    21    1
    18     9    22    1
    19    10    13    1
    20    10    23    1
    21    10    24    1
    22    11    16   ar
    23    11    17    1
    24    12    15    1
    25    12    25    1
    26    12    26    1
    27    13    15    2
    28    13    18    1
    29    15    27    1
    30    16    28    1
    31    17    29    1
    32    17    30    1
    33    17    31    1
    34    18    32    1
    35    18    33    1
    36    18    34    1
