@<TRIPOS>MOLECULE
IMPHY009238
 73 75 0 0 0
SMALL
GASTEIGER

@<TRIPOS>ATOM
      1 O           9.1944    2.3238    0.0000 O.2     1  UNL1       -0.5097
      2 O          12.6585    2.3238    0.0000 O.2     1  UNL1       -0.2908
      3 O          10.9265   -0.6762    0.0000 O.2     1  UNL1       -0.5056
      4 O          12.6585   -0.6762    0.0000 O.2     1  UNL1       -0.2915
      5 O           8.5104   -1.5556    0.0000 O.3     1  UNL1       -0.5055
      6 O           7.9088    1.8559    0.0000 O.3     1  UNL1       -0.5062
      7 O           5.2552   -0.3708    0.0000 O.3     1  UNL1       -0.4870
      8 O           7.1835   -2.6689    0.0000 O.2     1  UNL1       -0.2864
      9 C          10.9265    2.3238    0.0000 C.3     1  UNL1        0.0853
     10 C          10.0604    1.8238    0.0000 C.2     1  UNL1        0.1141
     11 C          10.0604    0.8238    0.0000 C.2     1  UNL1        0.0375
     12 C          11.7925    1.8238    0.0000 C.2     1  UNL1        0.1829
     13 C          11.7925    0.8238    0.0000 C.2     1  UNL1        0.1026
     14 C          11.4265    3.1898    0.0000 C.3     1  UNL1       -0.0458
     15 C          10.4265    3.1898    0.0000 C.3     1  UNL1       -0.0458
     16 C          10.9265    0.3238    0.0000 C.2     1  UNL1        0.1374
     17 C           9.1944    0.3238    0.0000 C.3     1  UNL1        0.0112
     18 C          12.6585    0.3238    0.0000 C.2     1  UNL1        0.1726
     19 C           8.2096    0.1502    0.0000 C.ar    1  UNL1        0.0408
     20 C          13.5245    0.8238    0.0000 C.3     1  UNL1        0.0167
     21 C           7.8675   -0.7894    0.0000 C.ar    1  UNL1        0.1381
     22 C           7.5668    0.9162    0.0000 C.ar    1  UNL1        0.1273
     23 C          14.3906    0.3238    0.0000 C.3     1  UNL1       -0.0556
     24 C          13.5245    1.8238    0.0000 C.3     1  UNL1       -0.0556
     25 C           6.8828   -0.9632    0.0000 C.ar    1  UNL1        0.1056
     26 C           6.5820    0.7426    0.0000 C.ar    1  UNL1        0.0228
     27 C           6.2400   -0.1971    0.0000 C.ar    1  UNL1        0.1388
     28 C           6.5407   -1.9028    0.0000 C.2     1  UNL1        0.2002
     29 C           5.5560   -2.0765    0.0000 C.ar    1  UNL1        0.0225
     30 C           4.6124    0.3953    0.0000 C.3     1  UNL1        0.1081
     31 C           4.9132   -1.3105    0.0000 C.ar    1  UNL1       -0.0509
     32 C           5.2139   -3.0161    0.0000 C.ar    1  UNL1       -0.0509
     33 C           3.6276    0.2216    0.0000 C.2     1  UNL1       -0.0484
     34 C           3.9284   -1.4841    0.0000 C.ar    1  UNL1       -0.0611
     35 C           4.2291   -3.1898    0.0000 C.ar    1  UNL1       -0.0611
     36 C           2.9848    0.9877    0.0000 C.2     1  UNL1       -0.0765
     37 C           3.5863   -2.4238    0.0000 C.ar    1  UNL1       -0.0617
     38 C           2.0000    0.8140    0.0000 C.3     1  UNL1       -0.0439
     39 C           3.3268    1.9274    0.0000 C.3     1  UNL1       -0.0439
     40 H          10.9634    3.4998    0.0000 H       1  UNL1        0.0243
     41 H          10.1165    3.7268    0.0000 H       1  UNL1        0.0243
     42 H           9.8895    2.8798    0.0000 H       1  UNL1        0.0243
     43 H          11.9634    2.8798    0.0000 H       1  UNL1        0.0243
     44 H          11.7365    3.7268    0.0000 H       1  UNL1        0.0243
     45 H          10.8895    3.4998    0.0000 H       1  UNL1        0.0243
     46 H           9.0514   -0.2795    0.0000 H       1  UNL1        0.0366
     47 H           8.9824    0.9064    0.0000 H       1  UNL1        0.0366
     48 H          12.9876    1.1338    0.0000 H       1  UNL1        0.0375
     49 H           8.6575    2.0138    0.0000 H       1  UNL1        0.2917
     50 H          14.0806   -0.2131    0.0000 H       1  UNL1        0.0236
     51 H          14.9275    0.0138    0.0000 H       1  UNL1        0.0236
     52 H          14.7006    0.8608    0.0000 H       1  UNL1        0.0236
     53 H          14.1445    1.8238    0.0000 H       1  UNL1        0.0236
     54 H          13.5245    2.4438    0.0000 H       1  UNL1        0.0236
     55 H          12.9045    1.8238    0.0000 H       1  UNL1        0.0236
     56 H          11.4634   -0.9862    0.0000 H       1  UNL1        0.2922
     57 H           6.1835    1.2175    0.0000 H       1  UNL1        0.0691
     58 H           8.2983   -2.1382    0.0000 H       1  UNL1        0.2922
     59 H           7.5103    2.3309    0.0000 H       1  UNL1        0.2921
     60 H           5.1493    0.7053    0.0000 H       1  UNL1        0.0742
     61 H           4.4004    0.9779    0.0000 H       1  UNL1        0.0742
     62 H           5.1252   -0.7279    0.0000 H       1  UNL1        0.0625
     63 H           5.6124   -3.4911    0.0000 H       1  UNL1        0.0625
     64 H           3.4155   -0.3610    0.0000 H       1  UNL1        0.0605
     65 H           3.5298   -1.0092    0.0000 H       1  UNL1        0.0618
     66 H           4.0171   -3.7725    0.0000 H       1  UNL1        0.0618
     67 H           2.9758   -2.5315    0.0000 H       1  UNL1        0.0618
     68 H           1.8923    1.4246    0.0000 H       1  UNL1        0.0274
     69 H           1.3894    0.7064    0.0000 H       1  UNL1        0.0274
     70 H           2.1077    0.2034    0.0000 H       1  UNL1        0.0274
     71 H           3.9094    1.7153    0.0000 H       1  UNL1        0.0274
     72 H           3.5389    2.5100    0.0000 H       1  UNL1        0.0274
     73 H           2.7442    2.1394    0.0000 H       1  UNL1        0.0274
@<TRIPOS>BOND
     1     1    10    1
     2     1    49    1
     3     2    12    2
     4     3    16    1
     5     3    56    1
     6     4    18    2
     7     5    21    1
     8     5    58    1
     9     6    22    1
    10     6    59    1
    11     7    27    1
    12     7    30    1
    13     8    28    2
    14     9    10    1
    15     9    12    1
    16     9    14    1
    17     9    15    1
    18    10    11    2
    19    11    16    1
    20    11    17    1
    21    12    13    1
    22    13    16    2
    23    13    18    1
    24    14    43    1
    25    14    44    1
    26    14    45    1
    27    15    40    1
    28    15    41    1
    29    15    42    1
    30    17    19    1
    31    17    46    1
    32    17    47    1
    33    18    20    1
    34    19    21   ar
    35    19    22   ar
    36    20    23    1
    37    20    24    1
    38    20    48    1
    39    21    25   ar
    40    22    26   ar
    41    23    50    1
    42    23    51    1
    43    23    52    1
    44    24    53    1
    45    24    54    1
    46    24    55    1
    47    25    27   ar
    48    25    28    1
    49    26    27   ar
    50    26    57    1
    51    28    29    1
    52    29    31   ar
    53    29    32   ar
    54    30    33    1
    55    30    60    1
    56    30    61    1
    57    31    34   ar
    58    31    62    1
    59    32    35   ar
    60    32    63    1
    61    33    36    2
    62    33    64    1
    63    34    37   ar
    64    34    65    1
    65    35    37   ar
    66    35    66    1
    67    36    38    1
    68    36    39    1
    69    37    67    1
    70    38    68    1
    71    38    69    1
    72    38    70    1
    73    39    71    1
    74    39    72    1
    75    39    73    1
