@<TRIPOS>MOLECULE
IMPHY013037
 55 58 0 0 0
SMALL
GASTEIGER

@<TRIPOS>ATOM
      1 O           7.3062    1.5678    0.0000 O.3     1  UNL1       -0.4807
      2 O           3.7702    1.5956    0.0000 O.2     1  UNL1       -0.4213
      3 O           5.5301   -1.4390    0.0000 O.3     1  UNL1       -0.4935
      4 O           7.2622   -1.4390    0.0000 O.2     1  UNL1       -0.2868
      5 O           2.0000    1.5851    0.0000 O.2     1  UNL1       -0.2452
      6 C           7.3142    2.6094    0.0000 C.3     1  UNL1        0.1235
      7 C           5.5301    1.5610    0.0000 C.ar    1  UNL1        0.0604
      8 C           6.3961    1.0610    0.0000 C.ar    1  UNL1        0.1467
      9 C           4.6641    0.0610    0.0000 C.ar    1  UNL1        0.0684
     10 C           4.6641    1.0610    0.0000 C.ar    1  UNL1        0.1538
     11 C           6.3961    0.0610    0.0000 C.ar    1  UNL1        0.1065
     12 C           6.4121    3.1302    0.0000 C.2     1  UNL1       -0.0408
     13 C           5.5301   -0.4390    0.0000 C.ar    1  UNL1        0.1457
     14 C           5.5141    2.6025    0.0000 C.2     1  UNL1       -0.0477
     15 C           7.8175    3.4735    0.0000 C.3     1  UNL1       -0.0215
     16 C           8.3142    2.6056    0.0000 C.3     1  UNL1       -0.0215
     17 C           3.7702   -0.4737    0.0000 C.ar    1  UNL1        0.0031
     18 C           7.2622   -0.4390    0.0000 C.2     1  UNL1        0.1957
     19 C           3.7817   -1.4736    0.0000 C.ar    1  UNL1       -0.0169
     20 C           2.8641    0.0401    0.0000 C.ar    1  UNL1        0.0314
     21 C           2.8641    1.0818    0.0000 C.ar    1  UNL1        0.3378
     22 C           8.1282    0.0610    0.0000 C.2     1  UNL1       -0.0071
     23 C           2.9215   -1.9836    0.0000 C.ar    1  UNL1       -0.0540
     24 C           4.6535   -1.9636    0.0000 C.ar    1  UNL1       -0.0540
     25 C           6.3961   -1.9390    0.0000 C.3     1  UNL1        0.0788
     26 C           8.1282    1.0610    0.0000 C.3     1  UNL1       -0.0364
     27 C           8.9942   -0.4390    0.0000 C.2     1  UNL1       -0.0805
     28 C           2.9331   -2.9836    0.0000 C.ar    1  UNL1       -0.0612
     29 C           4.6650   -2.9635    0.0000 C.ar    1  UNL1       -0.0612
     30 C           3.8048   -3.4735    0.0000 C.ar    1  UNL1       -0.0617
     31 C           9.8602    0.0610    0.0000 C.3     1  UNL1       -0.0462
     32 H           6.4097    3.7502    0.0000 H       1  UNL1        0.0611
     33 H           4.9736    2.9062    0.0000 H       1  UNL1        0.0624
     34 H           8.3532    3.1614    0.0000 H       1  UNL1        0.0271
     35 H           8.1296    4.0092    0.0000 H       1  UNL1        0.0271
     36 H           7.2818    3.7856    0.0000 H       1  UNL1        0.0271
     37 H           8.3118    1.9856    0.0000 H       1  UNL1        0.0271
     38 H           8.9342    2.6032    0.0000 H       1  UNL1        0.0271
     39 H           8.3166    3.2256    0.0000 H       1  UNL1        0.0271
     40 H           2.3284   -0.2719    0.0000 H       1  UNL1        0.0695
     41 H           2.3810   -1.6798    0.0000 H       1  UNL1        0.0624
     42 H           5.1868   -1.6474    0.0000 H       1  UNL1        0.0624
     43 H           6.0862   -2.4760    0.0000 H       1  UNL1        0.0660
     44 H           6.9331   -2.2490    0.0000 H       1  UNL1        0.0660
     45 H           6.7062   -1.4021    0.0000 H       1  UNL1        0.0660
     46 H           8.7482    1.0610    0.0000 H       1  UNL1        0.0279
     47 H           8.1282    1.6810    0.0000 H       1  UNL1        0.0279
     48 H           7.5082    1.0610    0.0000 H       1  UNL1        0.0279
     49 H           8.9942   -1.0590    0.0000 H       1  UNL1        0.0573
     50 H           2.3998   -3.2997    0.0000 H       1  UNL1        0.0618
     51 H           5.2055   -3.2673    0.0000 H       1  UNL1        0.0618
     52 H           3.8120   -4.0935    0.0000 H       1  UNL1        0.0618
     53 H          10.1703   -0.4760    0.0000 H       1  UNL1        0.0272
     54 H          10.3972    0.3710    0.0000 H       1  UNL1        0.0272
     55 H           9.5502    0.5979    0.0000 H       1  UNL1        0.0272
@<TRIPOS>BOND
     1     1     6    1
     2     1     8    1
     3     2    10   ar
     4     2    21   ar
     5     3    13    1
     6     3    25    1
     7     4    18    2
     8     5    21    2
     9     6    12    1
    10     6    15    1
    11     6    16    1
    12     7     8   ar
    13     7    10   ar
    14     7    14    1
    15     8    11   ar
    16     9    10   ar
    17     9    13   ar
    18     9    17   ar
    19    11    13   ar
    20    11    18    1
    21    12    14    2
    22    12    32    1
    23    14    33    1
    24    15    34    1
    25    15    35    1
    26    15    36    1
    27    16    37    1
    28    16    38    1
    29    16    39    1
    30    17    19    1
    31    17    20   ar
    32    18    22    1
    33    19    23   ar
    34    19    24   ar
    35    20    21   ar
    36    20    40    1
    37    22    26    1
    38    22    27    2
    39    23    28   ar
    40    23    41    1
    41    24    29   ar
    42    24    42    1
    43    25    43    1
    44    25    44    1
    45    25    45    1
    46    26    46    1
    47    26    47    1
    48    26    48    1
    49    27    31    1
    50    27    49    1
    51    28    30   ar
    52    28    50    1
    53    29    30   ar
    54    29    51    1
    55    30    52    1
    56    31    53    1
    57    31    54    1
    58    31    55    1
