@<TRIPOS>MOLECULE
IMPHY007635
 36 38 0 0 0
SMALL
GASTEIGER

@<TRIPOS>ATOM
      1 O           6.0682   -0.3673    0.0000 O.2     1  UNL1       -0.4507
      2 O           4.3198    2.6673    0.0000 O.3     1  UNL1       -0.4905
      3 O           7.8003    1.6327    0.0000 O.3     1  UNL1       -0.5007
      4 O           2.5381    1.6569    0.0000 O.3     1  UNL1       -0.5009
      5 O           6.0682    2.6327    0.0000 O.2     1  UNL1       -0.2830
      6 O           2.5381   -0.3914    0.0000 O.3     1  UNL1       -0.5031
      7 O           8.6663   -2.8673    0.0000 O.3     1  UNL1       -0.5033
      8 O          10.3984   -1.8673    0.0000 O.3     1  UNL1       -0.5033
      9 C           5.2022    1.1327    0.0000 C.ar    1  UNL1        0.1130
     10 C           5.2022    0.1327    0.0000 C.ar    1  UNL1        0.1468
     11 C           6.9343    0.1327    0.0000 C.ar    1  UNL1        0.1807
     12 C           4.3083    1.6674    0.0000 C.ar    1  UNL1        0.1795
     13 C           6.0682    1.6327    0.0000 C.ar    1  UNL1        0.2380
     14 C           6.9343    1.1327    0.0000 C.ar    1  UNL1        0.2082
     15 C           7.8003   -0.3673    0.0000 C.ar    1  UNL1        0.0247
     16 C           4.3083   -0.4019    0.0000 C.ar    1  UNL1        0.0268
     17 C           3.4022    1.1535    0.0000 C.ar    1  UNL1        0.2018
     18 C           3.4022    0.1119    0.0000 C.ar    1  UNL1        0.1655
     19 C           7.8003   -1.3673    0.0000 C.ar    1  UNL1       -0.0057
     20 C           8.6663    0.1327    0.0000 C.ar    1  UNL1       -0.0473
     21 C           8.6663   -1.8673    0.0000 C.ar    1  UNL1        0.1589
     22 C           9.5323   -0.3673    0.0000 C.ar    1  UNL1       -0.0159
     23 C           9.5323   -1.3673    0.0000 C.ar    1  UNL1        0.1583
     24 C           3.4597    3.1773    0.0000 C.3     1  UNL1        0.0790
     25 H           4.3154   -1.0219    0.0000 H       1  UNL1        0.0692
     26 H           7.2634   -1.6773    0.0000 H       1  UNL1        0.0662
     27 H           8.6663    0.7527    0.0000 H       1  UNL1        0.0626
     28 H          10.0693   -0.0573    0.0000 H       1  UNL1        0.0655
     29 H           7.8003    2.2527    0.0000 H       1  UNL1        0.2924
     30 H           2.0000    1.3489    0.0000 H       1  UNL1        0.2924
     31 H           3.7758    3.7106    0.0000 H       1  UNL1        0.0660
     32 H           2.9263    3.4935    0.0000 H       1  UNL1        0.0660
     33 H           3.1435    2.6440    0.0000 H       1  UNL1        0.0660
     34 H           2.5405   -1.0114    0.0000 H       1  UNL1        0.2923
     35 H           9.2033   -3.1773    0.0000 H       1  UNL1        0.2923
     36 H          10.9353   -1.5573    0.0000 H       1  UNL1        0.2923
@<TRIPOS>BOND
     1     1    10   ar
     2     1    11   ar
     3     2    12    1
     4     2    24    1
     5     3    14    1
     6     3    29    1
     7     4    17    1
     8     4    30    1
     9     5    13    2
    10     6    18    1
    11     6    34    1
    12     7    21    1
    13     7    35    1
    14     8    23    1
    15     8    36    1
    16     9    10   ar
    17     9    12   ar
    18     9    13   ar
    19    10    16   ar
    20    11    14   ar
    21    11    15    1
    22    12    17   ar
    23    13    14   ar
    24    15    19   ar
    25    15    20   ar
    26    16    18   ar
    27    16    25    1
    28    17    18   ar
    29    19    21   ar
    30    19    26    1
    31    20    22   ar
    32    20    27    1
    33    21    23   ar
    34    22    23   ar
    35    22    28    1
    36    24    31    1
    37    24    32    1
    38    24    33    1
