@<TRIPOS>MOLECULE
IMPHY004747
 58 61 0 0 0
SMALL
GASTEIGER

@<TRIPOS>ATOM
      1 O           4.5841   -1.9897    0.0000 O.3     1  UNL1       -0.4791
      2 O           7.2342   -0.4413    0.0000 O.2     1  UNL1       -0.4538
      3 O           4.6361    1.0587    0.0000 O.2     1  UNL1       -0.2865
      4 O           5.4803    2.5902    0.0000 O.3     1  UNL1       -0.5052
      5 O           6.4213   -5.1380    0.0000 O.3     1  UNL1       -0.4950
      6 O           9.0201    2.6038    0.0000 O.3     1  UNL1       -0.5059
      7 C           5.5021   -0.4413    0.0000 C.ar    1  UNL1        0.0869
      8 C           4.5921   -0.9481    0.0000 C.3     1  UNL1        0.1507
      9 C           6.3682   -0.9413    0.0000 C.ar    1  UNL1        0.1498
     10 C           6.3842   -1.9828    0.0000 C.ar    1  UNL1        0.0597
     11 C           6.3682    1.0587    0.0000 C.ar    1  UNL1        0.1065
     12 C           5.5021    0.5587    0.0000 C.ar    1  UNL1        0.2036
     13 C           5.4862   -2.5105    0.0000 C.ar    1  UNL1        0.1360
     14 C           7.2342    0.5587    0.0000 C.ar    1  UNL1        0.1463
     15 C           3.7319   -0.4381    0.0000 C.2     1  UNL1       -0.0406
     16 C           6.3521    2.1002    0.0000 C.ar    1  UNL1        0.1418
     17 C           7.2501    2.6280    0.0000 C.ar    1  UNL1        0.0584
     18 C           7.3361   -2.5034    0.0000 C.ar    1  UNL1       -0.0441
     19 C           8.1442    1.0656    0.0000 C.ar    1  UNL1        0.0237
     20 C           5.4778   -3.5955    0.0000 C.ar    1  UNL1        0.0225
     21 C           8.1522    2.1072    0.0000 C.ar    1  UNL1        0.1310
     22 C           2.8602   -0.9281    0.0000 C.2     1  UNL1       -0.0759
     23 C           6.4174   -4.1380    0.0000 C.ar    1  UNL1        0.1236
     24 C           7.3529   -3.5883    0.0000 C.ar    1  UNL1       -0.0191
     25 C           7.2463    3.6280    0.0000 C.2     1  UNL1       -0.0512
     26 C           8.1065    5.1313    0.0000 C.3     1  UNL1       -0.0283
     27 C           8.1104    4.1313    0.0000 C.2     1  UNL1       -0.0806
     28 C           2.0000   -0.4181    0.0000 C.3     1  UNL1       -0.0439
     29 C           2.8486   -1.9280    0.0000 C.3     1  UNL1       -0.0439
     30 C           8.9706    5.6346    0.0000 C.3     1  UNL1       -0.0592
     31 C           7.2386    5.6280    0.0000 C.3     1  UNL1       -0.0592
     32 C           7.2892   -5.6346    0.0000 C.3     1  UNL1        0.0788
     33 H           4.0522   -1.2529    0.0000 H       1  UNL1        0.0833
     34 H           3.7391    0.1818    0.0000 H       1  UNL1        0.0611
     35 H           7.8670   -2.1831    0.0000 H       1  UNL1        0.0627
     36 H           8.6775    0.7494    0.0000 H       1  UNL1        0.0691
     37 H           4.9397   -3.9034    0.0000 H       1  UNL1        0.0691
     38 H           7.8934   -3.8920    0.0000 H       1  UNL1        0.0654
     39 H           6.7081    3.9359    0.0000 H       1  UNL1        0.0623
     40 H           8.6446    4.8234    0.0000 H       1  UNL1        0.0338
     41 H           8.6485    3.8234    0.0000 H       1  UNL1        0.0575
     42 H           2.2287   -1.9208    0.0000 H       1  UNL1        0.0274
     43 H           2.3162    0.1152    0.0000 H       1  UNL1        0.0274
     44 H           1.4667   -0.1019    0.0000 H       1  UNL1        0.0274
     45 H           1.6838   -0.9514    0.0000 H       1  UNL1        0.0274
     46 H           2.8414   -2.5480    0.0000 H       1  UNL1        0.0274
     47 H           3.4686   -1.9352    0.0000 H       1  UNL1        0.0274
     48 H           5.4732    3.2102    0.0000 H       1  UNL1        0.2922
     49 H           9.2827    5.0989    0.0000 H       1  UNL1        0.0235
     50 H           9.5063    5.9467    0.0000 H       1  UNL1        0.0235
     51 H           8.6585    6.1704    0.0000 H       1  UNL1        0.0235
     52 H           7.5465    6.1661    0.0000 H       1  UNL1        0.0235
     53 H           6.7004    5.9359    0.0000 H       1  UNL1        0.0235
     54 H           6.9306    5.0898    0.0000 H       1  UNL1        0.0235
     55 H           9.5559    2.2918    0.0000 H       1  UNL1        0.2922
     56 H           6.9813   -6.1728    0.0000 H       1  UNL1        0.0660
     57 H           7.8274   -5.9426    0.0000 H       1  UNL1        0.0660
     58 H           7.5972   -5.0965    0.0000 H       1  UNL1        0.0660
@<TRIPOS>BOND
     1     1     8    1
     2     1    13    1
     3     2     9   ar
     4     2    14   ar
     5     3    12    2
     6     4    16    1
     7     4    48    1
     8     5    23    1
     9     5    32    1
    10     6    21    1
    11     6    55    1
    12     7     8    1
    13     7     9   ar
    14     7    12   ar
    15     8    15    1
    16     8    33    1
    17     9    10    1
    18    10    13   ar
    19    10    18   ar
    20    11    12   ar
    21    11    14   ar
    22    11    16   ar
    23    13    20   ar
    24    14    19   ar
    25    15    22    2
    26    15    34    1
    27    16    17   ar
    28    17    21   ar
    29    17    25    1
    30    18    24   ar
    31    18    35    1
    32    19    21   ar
    33    19    36    1
    34    20    23   ar
    35    20    37    1
    36    22    28    1
    37    22    29    1
    38    23    24   ar
    39    24    38    1
    40    25    27    2
    41    25    39    1
    42    26    27    1
    43    26    30    1
    44    26    31    1
    45    26    40    1
    46    27    41    1
    47    28    43    1
    48    28    44    1
    49    28    45    1
    50    29    42    1
    51    29    46    1
    52    29    47    1
    53    30    49    1
    54    30    50    1
    55    30    51    1
    56    31    52    1
    57    31    53    1
    58    31    54    1
    59    32    56    1
    60    32    57    1
    61    32    58    1
