@<TRIPOS>MOLECULE
IMPHY003079
 80 84 0 0 0
SMALL
GASTEIGER

@<TRIPOS>ATOM
      1 O           2.5357   -2.6574    0.0000 O.3     1  UNL1       -0.3887
      2 O           2.5519   -0.5658    0.0000 O.3     1  UNL1       -0.3892
      3 O          11.4608    0.4291    0.0000 O.3     1  UNL1       -0.4800
      4 O          10.6064   -1.0775    0.0000 O.2     1  UNL1       -0.2500
      5 C           7.0628   -1.1050    0.0000 C.3     1  UNL1       -0.0191
      6 C           5.2868   -1.1119    0.0000 C.3     1  UNL1       -0.0226
      7 C           6.1968   -0.6051    0.0000 C.3     1  UNL1       -0.0256
      8 C           5.2787   -2.1535    0.0000 C.3     1  UNL1       -0.0277
      9 C           7.9288   -0.6051    0.0000 C.3     1  UNL1       -0.0014
     10 C           7.0789   -2.1466    0.0000 C.3     1  UNL1       -0.0463
     11 C           4.3433   -2.7032    0.0000 C.3     1  UNL1       -0.0032
     12 C           6.1808   -2.6743    0.0000 C.3     1  UNL1       -0.0486
     13 C           4.3599   -0.5478    0.0000 C.3     1  UNL1       -0.0184
     14 C           6.1968    0.3949    0.0000 C.3     1  UNL1       -0.0303
     15 C           7.9288    0.3949    0.0000 C.2     1  UNL1       -0.0406
     16 C           8.8228   -1.1397    0.0000 C.3     1  UNL1       -0.0418
     17 C           3.4037   -2.1607    0.0000 C.3     1  UNL1        0.0864
     18 C           3.4120   -1.0758    0.0000 C.3     1  UNL1        0.0821
     19 C           7.7056   -1.8711    0.0000 C.3     1  UNL1       -0.0585
     20 C           5.2945   -0.1119    0.0000 C.3     1  UNL1       -0.0589
     21 C           7.0628    0.8949    0.0000 C.2     1  UNL1       -0.0797
     22 C           9.7288    0.4158    0.0000 C.3     1  UNL1        0.0927
     23 C           8.2709   -1.5447    0.0000 C.3     1  UNL1       -0.0550
     24 C           8.8228    0.9296    0.0000 C.2     1  UNL1       -0.0280
     25 C           9.7288   -0.6259    0.0000 C.3     1  UNL1       -0.0323
     26 C           3.8467   -3.5712    0.0000 C.3     1  UNL1       -0.0571
     27 C           4.8466   -3.5673    0.0000 C.3     1  UNL1       -0.0571
     28 C          10.6726    0.9510    0.0000 C.3     1  UNL1       -0.0326
     29 C           8.7977    2.0143    0.0000 C.2     1  UNL1       -0.0653
     30 C           9.7288    2.5712    0.0000 C.3     1  UNL1       -0.0224
     31 C          10.6726    2.0360    0.0000 C.3     1  UNL1       -0.0454
     32 C          10.5987   -0.0775    0.0000 C.2     1  UNL1        0.3153
     33 C           7.9222    2.4975    0.0000 C.3     1  UNL1       -0.0429
     34 C           9.7173    3.5712    0.0000 C.3     1  UNL1       -0.0587
     35 H           6.9329   -0.1801    0.0000 H       1  UNL1        0.0315
     36 H           5.2820   -3.0035    0.0000 H       1  UNL1        0.0312
     37 H           7.2969   -2.7270    0.0000 H       1  UNL1        0.0271
     38 H           7.6880   -2.0311    0.0000 H       1  UNL1        0.0271
     39 H           5.7835   -3.1503    0.0000 H       1  UNL1        0.0268
     40 H           6.5818   -3.1472    0.0000 H       1  UNL1        0.0268
     41 H           4.7681   -0.0812    0.0000 H       1  UNL1        0.0296
     42 H           3.9700   -0.0658    0.0000 H       1  UNL1        0.0296
     43 H           5.9847    0.9776    0.0000 H       1  UNL1        0.0311
     44 H           5.5862    0.2873    0.0000 H       1  UNL1        0.0311
     45 H           8.4182   -1.6095    0.0000 H       1  UNL1        0.0274
     46 H           9.2164   -1.6187    0.0000 H       1  UNL1        0.0274
     47 H           3.4025   -2.7807    0.0000 H       1  UNL1        0.0624
     48 H           2.8722   -1.3806    0.0000 H       1  UNL1        0.0619
     49 H           7.2306   -2.2696    0.0000 H       1  UNL1        0.0235
     50 H           8.1041   -2.3460    0.0000 H       1  UNL1        0.0235
     51 H           8.1805   -1.4726    0.0000 H       1  UNL1        0.0235
     52 H           5.9145   -0.1167    0.0000 H       1  UNL1        0.0235
     53 H           5.2993    0.5081    0.0000 H       1  UNL1        0.0235
     54 H           4.6745   -0.1071    0.0000 H       1  UNL1        0.0235
     55 H           7.0628    1.5150    0.0000 H       1  UNL1        0.0575
     56 H           7.6884   -1.7568    0.0000 H       1  UNL1        0.0238
     57 H           8.4830   -2.1273    0.0000 H       1  UNL1        0.0238
     58 H           8.8535   -1.3326    0.0000 H       1  UNL1        0.0238
     59 H           9.9379   -1.2096    0.0000 H       1  UNL1        0.0279
     60 H          10.3397   -0.5198    0.0000 H       1  UNL1        0.0279
     61 H           3.3085   -3.2632    0.0000 H       1  UNL1        0.0236
     62 H           3.5387   -4.1093    0.0000 H       1  UNL1        0.0236
     63 H           4.3848   -3.8791    0.0000 H       1  UNL1        0.0236
     64 H           4.3109   -3.8794    0.0000 H       1  UNL1        0.0236
     65 H           5.1587   -4.1030    0.0000 H       1  UNL1        0.0236
     66 H           5.3824   -3.2553    0.0000 H       1  UNL1        0.0236
     67 H          10.8817    0.3673    0.0000 H       1  UNL1        0.0279
     68 H          11.2835    1.0571    0.0000 H       1  UNL1        0.0279
     69 H          10.2628    2.8864    0.0000 H       1  UNL1        0.0343
     70 H          11.2835    1.9299    0.0000 H       1  UNL1        0.0271
     71 H          10.8817    2.6197    0.0000 H       1  UNL1        0.0271
     72 H           2.0000   -2.3453    0.0000 H       1  UNL1        0.2099
     73 H           2.5590    0.0542    0.0000 H       1  UNL1        0.2099
     74 H           8.2218    3.0403    0.0000 H       1  UNL1        0.0275
     75 H           7.3794    2.7971    0.0000 H       1  UNL1        0.0275
     76 H           7.6226    1.9547    0.0000 H       1  UNL1        0.0275
     77 H          10.3372    3.5783    0.0000 H       1  UNL1        0.0235
     78 H           9.7101    4.1911    0.0000 H       1  UNL1        0.0235
     79 H           9.0973    3.5640    0.0000 H       1  UNL1        0.0235
     80 H          12.0001    0.1233    0.0000 H       1  UNL1        0.2951
@<TRIPOS>BOND
     1    17     1    1
     2     1    72    1
     3    18     2    1
     4     2    73    1
     5     3    32    1
     6     3    80    1
     7     4    32    2
     8     5     7    1
     9     5     9    1
    10     5    10    1
    11     5    19    1
    12     6     7    1
    13     6     8    1
    14     6    13    1
    15     6    20    1
    16     7    14    1
    17     7    35    1
    18     8    11    1
    19     8    12    1
    20     8    36    1
    21     9    15    1
    22     9    16    1
    23     9    23    1
    24    10    12    1
    25    10    37    1
    26    10    38    1
    27    11    17    1
    28    11    26    1
    29    11    27    1
    30    12    39    1
    31    12    40    1
    32    13    18    1
    33    13    41    1
    34    13    42    1
    35    14    21    1
    36    14    43    1
    37    14    44    1
    38    15    21    2
    39    15    24    1
    40    16    25    1
    41    16    45    1
    42    16    46    1
    43    17    18    1
    44    17    47    1
    45    18    48    1
    46    19    49    1
    47    19    50    1
    48    19    51    1
    49    20    52    1
    50    20    53    1
    51    20    54    1
    52    21    55    1
    53    22    24    1
    54    22    25    1
    55    22    28    1
    56    22    32    1
    57    23    56    1
    58    23    57    1
    59    23    58    1
    60    24    29    2
    61    25    59    1
    62    25    60    1
    63    26    61    1
    64    26    62    1
    65    26    63    1
    66    27    64    1
    67    27    65    1
    68    27    66    1
    69    28    31    1
    70    28    67    1
    71    28    68    1
    72    29    30    1
    73    29    33    1
    74    30    31    1
    75    30    34    1
    76    30    69    1
    77    31    70    1
    78    31    71    1
    79    33    74    1
    80    33    75    1
    81    33    76    1
    82    34    77    1
    83    34    78    1
    84    34    79    1
