@<TRIPOS>MOLECULE
IMPHY003219
 80 86 0 0 0
SMALL
GASTEIGER

@<TRIPOS>ATOM
      1 O           7.1982    0.8940    0.0000 O.3     1  UNL1       -0.4479
      2 O           6.6738    3.3344    0.0000 O.3     1  UNL1       -0.4914
      3 O           5.0588   -3.0106    0.0000 O.3     1  UNL1       -0.4524
      4 O           7.7312    3.3375    0.0000 O.3     1  UNL1       -0.4885
      5 O           9.4311    3.7610    0.0000 O.3     1  UNL1       -0.4913
      6 O           3.3259   -4.0106    0.0000 O.3     1  UNL1       -0.5033
      7 N           2.8660    1.3942    0.0000 N.3     1  UNL1       -0.2978
      8 N           9.7975   -0.6067    0.0000 N.2     1  UNL1       -0.2868
      9 C           3.7325    0.8940    0.0000 C.3     1  UNL1        0.0397
     10 C           4.5989    1.3942    0.0000 C.ar    1  UNL1       -0.0231
     11 C           2.8660    2.3947    0.0000 C.3     1  UNL1        0.0032
     12 C           3.7325    2.8949    0.0000 C.3     1  UNL1       -0.0144
     13 C           4.5989    2.3947    0.0000 C.ar    1  UNL1       -0.0378
     14 C           3.3259   -0.0092    0.0000 C.3     1  UNL1       -0.0078
     15 C           5.4653    0.8940    0.0000 C.ar    1  UNL1       -0.0107
     16 C           2.0000    0.8942    0.0000 C.3     1  UNL1       -0.0122
     17 C           5.4653    2.8949    0.0000 C.ar    1  UNL1       -0.0128
     18 C           3.3259   -1.0097    0.0000 C.ar    1  UNL1       -0.0419
     19 C           6.3318    1.3942    0.0000 C.ar    1  UNL1        0.1703
     20 C           6.3318    2.3947    0.0000 C.ar    1  UNL1        0.1624
     21 C           4.1924   -1.5099    0.0000 C.ar    1  UNL1       -0.0124
     22 C           2.4595   -1.5099    0.0000 C.ar    1  UNL1       -0.0548
     23 C           8.9311    0.8940    0.0000 C.ar    1  UNL1        0.0455
     24 C           8.0646    1.3942    0.0000 C.ar    1  UNL1        0.1827
     25 C           9.7975    1.3942    0.0000 C.ar    1  UNL1       -0.0296
     26 C           8.9311   -0.1065    0.0000 C.2     1  UNL1        0.0512
     27 C          10.6640    0.8940    0.0000 C.3     1  UNL1       -0.0072
     28 C           4.1924   -2.5104    0.0000 C.ar    1  UNL1        0.1698
     29 C           8.0646    2.3947    0.0000 C.ar    1  UNL1        0.2048
     30 C           2.4595   -2.5104    0.0000 C.ar    1  UNL1       -0.0162
     31 C          10.6640   -0.1065    0.0000 C.3     1  UNL1        0.0440
     32 C           8.5245   -1.0097    0.0000 C.3     1  UNL1        0.0151
     33 C           9.7975    2.3947    0.0000 C.ar    1  UNL1       -0.0122
     34 C           3.3259   -3.0106    0.0000 C.ar    1  UNL1        0.1591
     35 C           8.9311    2.8949    0.0000 C.ar    1  UNL1        0.1655
     36 C           7.6581   -1.5099    0.0000 C.ar    1  UNL1       -0.0414
     37 C           6.0310    4.1004    0.0000 C.3     1  UNL1        0.0790
     38 C           5.9252   -2.5104    0.0000 C.ar    1  UNL1        0.1286
     39 C           6.7917   -1.0097    0.0000 C.ar    1  UNL1       -0.0547
     40 C           7.6581   -2.5104    0.0000 C.ar    1  UNL1       -0.0547
     41 C           5.9252   -1.5099    0.0000 C.ar    1  UNL1       -0.0191
     42 C           6.7917   -3.0106    0.0000 C.ar    1  UNL1       -0.0191
     43 C           7.9138    4.3206    0.0000 C.3     1  UNL1        0.0791
     44 C          10.4311    3.7610    0.0000 C.3     1  UNL1        0.0790
     45 H           2.9235    0.6330    0.0000 H       1  UNL1        0.0515
     46 H           2.6540    2.9773    0.0000 H       1  UNL1        0.0430
     47 H           2.2554    2.2870    0.0000 H       1  UNL1        0.0430
     48 H           4.1310    3.3699    0.0000 H       1  UNL1        0.0326
     49 H           3.3339    3.3699    0.0000 H       1  UNL1        0.0326
     50 H           2.8964    0.4379    0.0000 H       1  UNL1        0.0332
     51 H           3.9321   -0.1394    0.0000 H       1  UNL1        0.0332
     52 H           5.4653    0.2740    0.0000 H       1  UNL1        0.0659
     53 H           1.6900    1.4312    0.0000 H       1  UNL1        0.0391
     54 H           1.4631    0.5842    0.0000 H       1  UNL1        0.0391
     55 H           2.3100    0.3573    0.0000 H       1  UNL1        0.0391
     56 H           5.4653    3.5149    0.0000 H       1  UNL1        0.0658
     57 H           4.7293   -1.1999    0.0000 H       1  UNL1        0.0658
     58 H           1.9225   -1.1999    0.0000 H       1  UNL1        0.0621
     59 H          11.2745    0.7863    0.0000 H       1  UNL1        0.0331
     60 H          10.8760    1.4766    0.0000 H       1  UNL1        0.0331
     61 H          10.8760   -0.6891    0.0000 H       1  UNL1        0.0511
     62 H          11.2745    0.0012    0.0000 H       1  UNL1        0.0511
     63 H           1.9225   -2.8204    0.0000 H       1  UNL1        0.0655
     64 H           8.6526   -1.6163    0.0000 H       1  UNL1        0.0377
     65 H           8.0646   -0.5939    0.0000 H       1  UNL1        0.0377
     66 H          10.3345    2.7047    0.0000 H       1  UNL1        0.0658
     67 H           6.5060    4.4990    0.0000 H       1  UNL1        0.0660
     68 H           5.6325    4.5754    0.0000 H       1  UNL1        0.0660
     69 H           5.5561    3.7019    0.0000 H       1  UNL1        0.0660
     70 H           6.7917   -0.3897    0.0000 H       1  UNL1        0.0622
     71 H           8.1950   -2.8204    0.0000 H       1  UNL1        0.0622
     72 H           5.3883   -1.1999    0.0000 H       1  UNL1        0.0654
     73 H           6.7917   -3.6306    0.0000 H       1  UNL1        0.0654
     74 H           2.7890   -4.3206    0.0000 H       1  UNL1        0.2923
     75 H           8.5234    4.2074    0.0000 H       1  UNL1        0.0660
     76 H           8.0270    4.9302    0.0000 H       1  UNL1        0.0660
     77 H           7.3042    4.4339    0.0000 H       1  UNL1        0.0660
     78 H          10.4311    3.1410    0.0000 H       1  UNL1        0.0660
     79 H          11.0511    3.7610    0.0000 H       1  UNL1        0.0660
     80 H          10.4311    4.3810    0.0000 H       1  UNL1        0.0660
@<TRIPOS>BOND
     1     1    19    1
     2     1    24    1
     3     2    20    1
     4     2    37    1
     5     3    28    1
     6     3    38    1
     7     4    29    1
     8     4    43    1
     9     5    35    1
    10     5    44    1
    11     6    34    1
    12     6    74    1
    13     7     9    1
    14     7    11    1
    15     7    16    1
    16     8    26    2
    17     8    31    1
    18     9    10    1
    19     9    14    1
    20     9    45    1
    21    10    13   ar
    22    10    15   ar
    23    11    12    1
    24    11    46    1
    25    11    47    1
    26    12    13    1
    27    12    48    1
    28    12    49    1
    29    13    17   ar
    30    14    18    1
    31    14    50    1
    32    14    51    1
    33    15    19   ar
    34    15    52    1
    35    16    53    1
    36    16    54    1
    37    16    55    1
    38    17    20   ar
    39    17    56    1
    40    18    21   ar
    41    18    22   ar
    42    19    20   ar
    43    21    28   ar
    44    21    57    1
    45    22    30   ar
    46    22    58    1
    47    23    24   ar
    48    23    25   ar
    49    23    26    1
    50    24    29   ar
    51    25    27    1
    52    25    33   ar
    53    26    32    1
    54    27    31    1
    55    27    59    1
    56    27    60    1
    57    28    34   ar
    58    29    35   ar
    59    30    34   ar
    60    30    63    1
    61    31    61    1
    62    31    62    1
    63    32    36    1
    64    32    64    1
    65    32    65    1
    66    33    35   ar
    67    33    66    1
    68    36    39   ar
    69    36    40   ar
    70    37    67    1
    71    37    68    1
    72    37    69    1
    73    38    41   ar
    74    38    42   ar
    75    39    41   ar
    76    39    70    1
    77    40    42   ar
    78    40    71    1
    79    41    72    1
    80    42    73    1
    81    43    75    1
    82    43    76    1
    83    43    77    1
    84    44    78    1
    85    44    79    1
    86    44    80    1
