@<TRIPOS>MOLECULE
IMPHY013637
 53 56 0 0 0
SMALL
GASTEIGER

@<TRIPOS>ATOM
      1 O          10.0508   -0.4560    0.0000 O.3     1  UNL1       -0.4592
      2 O          10.2920   -2.2880    0.0000 O.2     1  UNL1       -0.2505
      3 O           2.5289   -1.7413    0.0000 O.3     1  UNL1       -0.4679
      4 O           3.9989   -2.6573    0.0000 O.2     1  UNL1       -0.2508
      5 N           5.6189   -0.1223    0.0000 N.3     1  UNL1       -0.2946
      6 C           6.3430   -1.2196    0.0000 C.3     1  UNL1       -0.0052
      7 C           7.1720   -1.7788    0.0000 C.3     1  UNL1       -0.0205
      8 C           6.6186   -0.2583    0.0000 C.3     1  UNL1        0.0536
      9 C           5.5612   -1.8336    0.0000 C.3     1  UNL1       -0.0177
     10 C           8.3931   -0.9131    0.0000 C.3     1  UNL1        0.0662
     11 C           8.6519    0.0528    0.0000 C.3     1  UNL1        0.1228
     12 C           7.9153    1.0354    0.0000 C.3     1  UNL1        0.0132
     13 C           5.0567   -0.9600    0.0000 C.3     1  UNL1        0.0240
     14 C           6.8956   -2.7336    0.0000 C.3     1  UNL1       -0.0486
     15 C           5.9020   -2.7675    0.0000 C.3     1  UNL1       -0.0479
     16 C           6.0674   -2.1808    0.0000 C.3     1  UNL1       -0.0574
     17 C           9.7920   -1.4219    0.0000 C.2     1  UNL1        0.3112
     18 C           7.4153    1.9014    0.0000 C.3     1  UNL1       -0.0397
     19 C           4.0572   -0.9263    0.0000 C.3     1  UNL1        0.0608
     20 C           5.2092    0.7899    0.0000 C.3     1  UNL1       -0.0120
     21 C           7.9153    2.7675    0.0000 C.3     1  UNL1       -0.0623
     22 C           6.4153    1.9014    0.0000 C.3     1  UNL1       -0.0623
     23 C           3.5283   -1.7750    0.0000 C.2     1  UNL1        0.3083
     24 C           2.0000   -2.5900    0.0000 C.3     1  UNL1        0.0817
     25 H           7.8767   -2.2541    0.0000 H       1  UNL1        0.0315
     26 H           6.8529    0.5587    0.0000 H       1  UNL1        0.0505
     27 H           4.7911   -2.1932    0.0000 H       1  UNL1        0.0322
     28 H           8.1731   -1.7342    0.0000 H       1  UNL1        0.0420
     29 H           8.8719    0.8738    0.0000 H       1  UNL1        0.0753
     30 H           8.4327    1.3770    0.0000 H       1  UNL1        0.0347
     31 H           4.7742   -0.4080    0.0000 H       1  UNL1        0.0471
     32 H           6.8514   -3.3521    0.0000 H       1  UNL1        0.0268
     33 H           7.5059   -2.8425    0.0000 H       1  UNL1        0.0268
     34 H           5.3005   -2.9176    0.0000 H       1  UNL1        0.0269
     35 H           5.9882   -3.3815    0.0000 H       1  UNL1        0.0269
     36 H           5.4714   -2.0100    0.0000 H       1  UNL1        0.0236
     37 H           5.8965   -2.7768    0.0000 H       1  UNL1        0.0236
     38 H           6.6634   -2.3518    0.0000 H       1  UNL1        0.0236
     39 H           8.0353    1.9014    0.0000 H       1  UNL1        0.0300
     40 H           4.1854   -0.3197    0.0000 H       1  UNL1        0.0393
     41 H           3.4821   -0.6947    0.0000 H       1  UNL1        0.0393
     42 H           5.7747    1.0440    0.0000 H       1  UNL1        0.0391
     43 H           4.9551    1.3555    0.0000 H       1  UNL1        0.0391
     44 H           4.6436    0.5359    0.0000 H       1  UNL1        0.0391
     45 H           8.4522    2.4575    0.0000 H       1  UNL1        0.0232
     46 H           8.2253    3.3044    0.0000 H       1  UNL1        0.0232
     47 H           7.3783    3.0775    0.0000 H       1  UNL1        0.0232
     48 H           6.4153    2.5215    0.0000 H       1  UNL1        0.0232
     49 H           5.7953    1.9014    0.0000 H       1  UNL1        0.0232
     50 H           6.4153    1.2814    0.0000 H       1  UNL1        0.0232
     51 H           1.4738   -2.2620    0.0000 H       1  UNL1        0.0661
     52 H           1.6721   -3.1161    0.0000 H       1  UNL1        0.0661
     53 H           2.5262   -2.9179    0.0000 H       1  UNL1        0.0661
@<TRIPOS>BOND
     1     1    11    1
     2     1    17    1
     3     2    17    2
     4     3    23    1
     5     3    24    1
     6     4    23    2
     7     5     8    1
     8     5    13    1
     9     5    20    1
    10     6     7    1
    11     6     8    1
    12     6     9    1
    13     6    16    1
    14     7    10    1
    15     7    14    1
    16     7    25    1
    17     8    11    1
    18     8    26    1
    19     9    13    1
    20     9    15    1
    21     9    27    1
    22    10    12    1
    23    10    17    1
    24    10    28    1
    25    11    12    1
    26    11    29    1
    27    12    18    1
    28    12    30    1
    29    13    19    1
    30    13    31    1
    31    14    15    1
    32    14    32    1
    33    14    33    1
    34    15    34    1
    35    15    35    1
    36    16    36    1
    37    16    37    1
    38    16    38    1
    39    18    21    1
    40    18    22    1
    41    18    39    1
    42    19    23    1
    43    19    40    1
    44    19    41    1
    45    20    42    1
    46    20    43    1
    47    20    44    1
    48    21    45    1
    49    21    46    1
    50    21    47    1
    51    22    48    1
    52    22    49    1
    53    22    50    1
    54    24    51    1
    55    24    52    1
    56    24    53    1
