@<TRIPOS>MOLECULE
IMPHY007590
 37 40 0 0 0
SMALL
GASTEIGER

@<TRIPOS>ATOM
      1 O           7.9875   -0.0664    0.0000 O.3     1  UNL1       -0.4813
      2 N           4.5124   -0.9830    0.0000 N.ar    1  UNL1       -0.3536
      3 C           8.3170   -1.0546    0.0000 C.3     1  UNL1        0.1235
      4 C           5.3181   -0.4008    0.0000 C.ar    1  UNL1        0.0582
      5 C           6.2962   -0.6087    0.0000 C.ar    1  UNL1        0.0407
      6 C           5.0091    0.5502    0.0000 C.ar    1  UNL1        0.0084
      7 C           6.9654    0.1344    0.0000 C.ar    1  UNL1        0.1337
      8 C           4.0150    0.5477    0.0000 C.ar    1  UNL1        0.0074
      9 C           6.6564    1.0855    0.0000 C.ar    1  UNL1       -0.0075
     10 C           7.6200   -1.8286    0.0000 C.2     1  UNL1       -0.0408
     11 C           3.7086   -0.3980    0.0000 C.ar    1  UNL1        0.0475
     12 C           5.6782    1.2934    0.0000 C.ar    1  UNL1       -0.0456
     13 C           6.6028   -1.6042    0.0000 C.2     1  UNL1       -0.0493
     14 C           9.0627   -1.7208    0.0000 C.3     1  UNL1       -0.0215
     15 C           9.2668   -0.7419    0.0000 C.3     1  UNL1       -0.0215
     16 C           3.3334    1.3272    0.0000 C.ar    1  UNL1       -0.0520
     17 C           7.3255    1.8286    0.0000 C.3     1  UNL1       -0.0362
     18 C           2.6994   -0.6298    0.0000 C.ar    1  UNL1       -0.0378
     19 C           2.3191    1.1188    0.0000 C.ar    1  UNL1       -0.0611
     20 C           2.0000    0.1338    0.0000 C.ar    1  UNL1       -0.0598
     21 H           7.8093   -2.4190    0.0000 H       1  UNL1        0.0611
     22 H           6.1826   -2.0601    0.0000 H       1  UNL1        0.0623
     23 H           5.4866    1.8830    0.0000 H       1  UNL1        0.0628
     24 H           4.5113   -1.6030    0.0000 H       1  UNL1        0.1659
     25 H           8.6496   -2.1832    0.0000 H       1  UNL1        0.0271
     26 H           9.5250   -2.1339    0.0000 H       1  UNL1        0.0271
     27 H           9.4758   -1.2585    0.0000 H       1  UNL1        0.0271
     28 H           9.4607   -1.3308    0.0000 H       1  UNL1        0.0271
     29 H           9.8557   -0.5480    0.0000 H       1  UNL1        0.0271
     30 H           9.0730   -0.1530    0.0000 H       1  UNL1        0.0271
     31 H           3.5313    1.9147    0.0000 H       1  UNL1        0.0624
     32 H           7.7862    1.4138    0.0000 H       1  UNL1        0.0279
     33 H           7.7403    2.2894    0.0000 H       1  UNL1        0.0279
     34 H           6.8647    2.2435    0.0000 H       1  UNL1        0.0279
     35 H           2.5152   -1.2218    0.0000 H       1  UNL1        0.0638
     36 H           1.9056    1.5808    0.0000 H       1  UNL1        0.0618
     37 H           1.3942    0.0020    0.0000 H       1  UNL1        0.0618
@<TRIPOS>BOND
     1     1     3    1
     2     1     7    1
     3     2     4   ar
     4     2    11   ar
     5     2    24    1
     6     3    10    1
     7     3    14    1
     8     3    15    1
     9     4     5   ar
    10     4     6   ar
    11     5     7   ar
    12     5    13    1
    13     6     8   ar
    14     6    12   ar
    15     7     9   ar
    16     8    11   ar
    17     8    16   ar
    18     9    12   ar
    19     9    17    1
    20    10    13    2
    21    10    21    1
    22    11    18   ar
    23    12    23    1
    24    13    22    1
    25    14    25    1
    26    14    26    1
    27    14    27    1
    28    15    28    1
    29    15    29    1
    30    15    30    1
    31    16    19   ar
    32    16    31    1
    33    17    32    1
    34    17    33    1
    35    17    34    1
    36    18    20   ar
    37    18    35    1
    38    19    20   ar
    39    19    36    1
    40    20    37    1
