@<TRIPOS>MOLECULE
IMPHY008872
 23 22 0 0 0
SMALL
GASTEIGER

@<TRIPOS>ATOM
      1 O           3.7320   -0.5600    0.0000 O.3     1  UNL1       -0.4668
      2 O           2.0000   -0.5600    0.0000 O.2     1  UNL1       -0.2546
      3 C           6.3301   -0.0600    0.0000 C.3     1  UNL1       -0.0500
      4 C           7.1962   -0.5600    0.0000 C.3     1  UNL1       -0.0532
      5 C           5.4641   -0.5600    0.0000 C.3     1  UNL1       -0.0185
      6 C           8.0622   -0.0600    0.0000 C.3     1  UNL1       -0.0559
      7 C           4.5981   -0.0600    0.0000 C.3     1  UNL1        0.0922
      8 C           8.9282   -0.5600    0.0000 C.3     1  UNL1       -0.0653
      9 C           2.8660   -0.0600    0.0000 C.2     1  UNL1        0.2943
     10 H           6.7287    0.4149    0.0000 H       1  UNL1        0.0266
     11 H           5.9316    0.4149    0.0000 H       1  UNL1        0.0266
     12 H           6.7976   -1.0350    0.0000 H       1  UNL1        0.0265
     13 H           7.5947   -1.0350    0.0000 H       1  UNL1        0.0265
     14 H           5.0656   -1.0350    0.0000 H       1  UNL1        0.0298
     15 H           5.8626   -1.0350    0.0000 H       1  UNL1        0.0298
     16 H           8.4607    0.4149    0.0000 H       1  UNL1        0.0263
     17 H           7.6636    0.4149    0.0000 H       1  UNL1        0.0263
     18 H           4.9966    0.4149    0.0000 H       1  UNL1        0.0697
     19 H           4.1996    0.4149    0.0000 H       1  UNL1        0.0697
     20 H           8.6182   -1.0969    0.0000 H       1  UNL1        0.0230
     21 H           9.4651   -0.8700    0.0000 H       1  UNL1        0.0230
     22 H           9.2382   -0.0231    0.0000 H       1  UNL1        0.0230
     23 H           2.8660    0.5600    0.0000 H       1  UNL1        0.1512
@<TRIPOS>BOND
     1     1     7    1
     2     1     9    1
     3     2     9    2
     4     3     4    1
     5     3     5    1
     6     3    10    1
     7     3    11    1
     8     4     6    1
     9     4    12    1
    10     4    13    1
    11     5     7    1
    12     5    14    1
    13     5    15    1
    14     6     8    1
    15     6    16    1
    16     6    17    1
    17     7    18    1
    18     7    19    1
    19     8    20    1
    20     8    21    1
    21     8    22    1
    22     9    23    1
