@<TRIPOS>MOLECULE
IMPHY000922
 61 64 0 0 0
SMALL
GASTEIGER

@<TRIPOS>ATOM
      1 O           5.1350   -1.1121    0.0000 O.3     1  UNL1       -0.3313
      2 O           6.8671   -1.1121    0.0000 O.3     1  UNL1       -0.4603
      3 O           5.1350   -4.1121    0.0000 O.3     1  UNL1       -0.3864
      4 O           3.4030   -3.1121    0.0000 O.3     1  UNL1       -0.3865
      5 O           6.8671   -3.1121    0.0000 O.3     1  UNL1       -0.3829
      6 O           8.6270    1.9226    0.0000 O.3     1  UNL1       -0.4837
      7 O           2.5369   -1.6121    0.0000 O.3     1  UNL1       -0.3924
      8 O           5.1350    1.8879    0.0000 O.3     1  UNL1       -0.5065
      9 O          12.9972    1.4221    0.0000 O.3     1  UNL1       -0.4914
     10 O          12.9895    3.4221    0.0000 O.3     1  UNL1       -0.4915
     11 C           5.1350   -3.1121    0.0000 C.3     1  UNL1        0.1152
     12 C           4.2690   -2.6121    0.0000 C.3     1  UNL1        0.1120
     13 C           6.0010   -2.6121    0.0000 C.3     1  UNL1        0.1454
     14 C           4.2690   -1.6121    0.0000 C.3     1  UNL1        0.1140
     15 C           6.0010   -1.6121    0.0000 C.3     1  UNL1        0.2308
     16 C           3.4030   -1.1121    0.0000 C.3     1  UNL1        0.0731
     17 C           7.7331    0.3879    0.0000 C.ar    1  UNL1        0.0364
     18 C           8.6270   -0.1467    0.0000 C.3     1  UNL1       -0.0171
     19 C           9.5331    0.3671    0.0000 C.3     1  UNL1       -0.0073
     20 C           9.5331    1.4087    0.0000 C.3     1  UNL1        0.1256
     21 C           6.8671   -0.1121    0.0000 C.ar    1  UNL1        0.1341
     22 C           7.7331    1.3879    0.0000 C.ar    1  UNL1        0.1315
     23 C          10.3972    1.9121    0.0000 C.ar    1  UNL1       -0.0037
     24 C           6.0010    0.3879    0.0000 C.ar    1  UNL1        0.0222
     25 C           6.8671    1.8879    0.0000 C.ar    1  UNL1        0.0221
     26 C           6.0010    1.3879    0.0000 C.ar    1  UNL1        0.1238
     27 C          11.2651    1.4154    0.0000 C.ar    1  UNL1       -0.0096
     28 C          10.3933    2.9121    0.0000 C.ar    1  UNL1       -0.0514
     29 C          12.1292    1.9188    0.0000 C.ar    1  UNL1        0.1619
     30 C          11.2574    3.4154    0.0000 C.ar    1  UNL1       -0.0159
     31 C          12.1254    2.9188    0.0000 C.ar    1  UNL1        0.1615
     32 C          13.0010    0.4221    0.0000 C.3     1  UNL1        0.0790
     33 C          12.9856    4.4221    0.0000 C.3     1  UNL1        0.0790
     34 H           5.6720   -3.4221    0.0000 H       1  UNL1        0.0648
     35 H           3.7320   -2.3021    0.0000 H       1  UNL1        0.0647
     36 H           6.5380   -2.3021    0.0000 H       1  UNL1        0.0683
     37 H           4.2690   -0.9921    0.0000 H       1  UNL1        0.0647
     38 H           6.0010   -0.9921    0.0000 H       1  UNL1        0.1084
     39 H           3.8015   -0.6371    0.0000 H       1  UNL1        0.0584
     40 H           3.0044   -0.6371    0.0000 H       1  UNL1        0.0584
     41 H           8.2224   -0.6165    0.0000 H       1  UNL1        0.0317
     42 H           9.0207   -0.6258    0.0000 H       1  UNL1        0.0317
     43 H           9.7422   -0.2166    0.0000 H       1  UNL1        0.0307
     44 H          10.1440    0.4732    0.0000 H       1  UNL1        0.0307
     45 H           9.5295    2.0287    0.0000 H       1  UNL1        0.0784
     46 H           4.5981   -4.4221    0.0000 H       1  UNL1        0.2100
     47 H           3.4030   -3.7321    0.0000 H       1  UNL1        0.2100
     48 H           6.8671   -3.7321    0.0000 H       1  UNL1        0.2102
     49 H           5.4641    0.0779    0.0000 H       1  UNL1        0.0691
     50 H           6.8671    2.5079    0.0000 H       1  UNL1        0.0691
     51 H           2.0000   -1.3021    0.0000 H       1  UNL1        0.2095
     52 H          11.2675    0.7954    0.0000 H       1  UNL1        0.0659
     53 H           9.8552    3.2200    0.0000 H       1  UNL1        0.0623
     54 H          11.2550    4.0354    0.0000 H       1  UNL1        0.0655
     55 H           5.1350    2.5079    0.0000 H       1  UNL1        0.2921
     56 H          12.3810    0.4197    0.0000 H       1  UNL1        0.0660
     57 H          13.0034   -0.1979    0.0000 H       1  UNL1        0.0660
     58 H          13.6210    0.4245    0.0000 H       1  UNL1        0.0660
     59 H          13.6056    4.4245    0.0000 H       1  UNL1        0.0660
     60 H          12.9832    5.0421    0.0000 H       1  UNL1        0.0660
     61 H          12.3656    4.4197    0.0000 H       1  UNL1        0.0660
@<TRIPOS>BOND
     1     1    14    1
     2     1    15    1
     3    15     2    1
     4     2    21    1
     5    11     3    1
     6     3    46    1
     7    12     4    1
     8     4    47    1
     9    13     5    1
    10     5    48    1
    11     6    20    1
    12     6    22    1
    13     7    16    1
    14     7    51    1
    15     8    26    1
    16     8    55    1
    17     9    29    1
    18     9    32    1
    19    10    31    1
    20    10    33    1
    21    11    12    1
    22    11    13    1
    23    11    34    1
    24    12    14    1
    25    12    35    1
    26    13    15    1
    27    13    36    1
    28    14    16    1
    29    14    37    1
    30    15    38    1
    31    16    39    1
    32    16    40    1
    33    17    18    1
    34    17    21   ar
    35    17    22   ar
    36    18    19    1
    37    18    41    1
    38    18    42    1
    39    19    20    1
    40    19    43    1
    41    19    44    1
    42    20    23    1
    43    20    45    1
    44    21    24   ar
    45    22    25   ar
    46    23    27   ar
    47    23    28   ar
    48    24    26   ar
    49    24    49    1
    50    25    26   ar
    51    25    50    1
    52    27    29   ar
    53    27    52    1
    54    28    30   ar
    55    28    53    1
    56    29    31   ar
    57    30    31   ar
    58    30    54    1
    59    32    56    1
    60    32    57    1
    61    32    58    1
    62    33    59    1
    63    33    60    1
    64    33    61    1
