@<TRIPOS>MOLECULE
IMPHY001157
 57 63 0 0 0
SMALL
GASTEIGER

@<TRIPOS>ATOM
      1 O           5.5918    3.1617    0.0000 O.3     1  UNL1       -0.3838
      2 O           7.5328   -0.2937    0.0000 O.3     1  UNL1       -0.3908
      3 O           7.2254    2.7138    0.0000 O.3     1  UNL1       -0.3882
      4 O           3.8020   -1.9732    0.0000 O.3     1  UNL1       -0.4615
      5 O           2.0700   -1.9663    0.0000 O.2     1  UNL1       -0.2512
      6 N           3.8941    2.0342    0.0000 N.3     1  UNL1       -0.2922
      7 C           4.7882    0.4856    0.0000 C.3     1  UNL1        0.0030
      8 C           5.2018    1.0477    0.0000 C.3     1  UNL1        0.0143
      9 C           4.7882    1.5180    0.0000 C.3     1  UNL1        0.0489
     10 C           3.8941   -0.0306    0.0000 C.3     1  UNL1       -0.0111
     11 C           5.5954   -0.1581    0.0000 C.3     1  UNL1        0.0020
     12 C           5.5954    2.1617    0.0000 C.3     1  UNL1        0.1146
     13 C           3.5500    1.0247    0.0000 C.3     1  UNL1        0.0154
     14 C           3.0000    0.4856    0.0000 C.3     1  UNL1       -0.0112
     15 C           4.2153    1.2542    0.0000 C.3     1  UNL1       -0.0280
     16 C           6.6019    0.0716    0.0000 C.3     1  UNL1        0.0681
     17 C           4.7889   -0.5354    0.0000 C.3     1  UNL1       -0.0078
     18 C           3.0000    1.5180    0.0000 C.3     1  UNL1        0.0054
     19 C           6.6019    1.9320    0.0000 C.3     1  UNL1        0.0947
     20 C           7.0499    1.0018    0.0000 C.3     1  UNL1        0.0349
     21 C           5.7295    1.5524    0.0000 C.3     1  UNL1       -0.0227
     22 C           2.9993   -0.4436    0.0000 C.3     1  UNL1       -0.0088
     23 C           3.8060   -0.9732    0.0000 C.3     1  UNL1        0.1042
     24 C           6.5096    1.5524    0.0000 C.2     1  UNL1       -0.0679
     25 C           2.0000    0.4859    0.0000 C.3     1  UNL1       -0.0580
     26 C           6.6309    2.5450    0.0000 C.2     1  UNL1       -0.0990
     27 C           2.9340   -2.4698    0.0000 C.2     1  UNL1        0.3042
     28 C           2.9300   -3.4698    0.0000 C.3     1  UNL1        0.0332
     29 H           4.6479    2.3564    0.0000 H       1  UNL1        0.0498
     30 H           4.3244   -0.7637    0.0000 H       1  UNL1        0.0328
     31 H           5.5910   -1.0081    0.0000 H       1  UNL1        0.0338
     32 H           2.7000    1.0304    0.0000 H       1  UNL1        0.0466
     33 H           4.5396    1.7826    0.0000 H       1  UNL1        0.0287
     34 H           4.2542    0.6354    0.0000 H       1  UNL1        0.0287
     35 H           6.6943   -0.5415    0.0000 H       1  UNL1        0.0603
     36 H           4.9600   -1.1313    0.0000 H       1  UNL1        0.0307
     37 H           5.4028   -0.4488    0.0000 H       1  UNL1        0.0307
     38 H           2.7880    2.1006    0.0000 H       1  UNL1        0.0432
     39 H           2.3894    1.4103    0.0000 H       1  UNL1        0.0432
     40 H           7.2180    1.8626    0.0000 H       1  UNL1        0.0629
     41 H           7.8999    1.0018    0.0000 H       1  UNL1        0.0397
     42 H           5.8944    2.1501    0.0000 H       1  UNL1        0.0316
     43 H           5.1972    1.8703    0.0000 H       1  UNL1        0.0316
     44 H           2.3910   -0.3240    0.0000 H       1  UNL1        0.0307
     45 H           2.7650   -1.0176    0.0000 H       1  UNL1        0.0307
     46 H           3.2598   -1.2666    0.0000 H       1  UNL1        0.0734
     47 H           2.0002    1.1060    0.0000 H       1  UNL1        0.0236
     48 H           1.3800    0.4862    0.0000 H       1  UNL1        0.0236
     49 H           1.9998   -0.1341    0.0000 H       1  UNL1        0.0236
     50 H           5.0537    3.4698    0.0000 H       1  UNL1        0.2104
     51 H           7.6252   -0.9068    0.0000 H       1  UNL1        0.2098
     52 H           7.8385    2.6214    0.0000 H       1  UNL1        0.2099
     53 H           7.2015    2.7876    0.0000 H       1  UNL1        0.0535
     54 H           6.1356    2.9179    0.0000 H       1  UNL1        0.0535
     55 H           2.3100   -3.4673    0.0000 H       1  UNL1        0.0342
     56 H           2.9275   -4.0898    0.0000 H       1  UNL1        0.0342
     57 H           3.5500   -3.4722    0.0000 H       1  UNL1        0.0342
@<TRIPOS>BOND
     1    12     1    1
     2     1    50    1
     3    16     2    1
     4     2    51    1
     5     3    19    1
     6     3    52    1
     7    23     4    1
     8     4    27    1
     9     5    27    2
    10     6     9    1
    11     6    13    1
    12     6    18    1
    13     7     9    1
    14     7    10    1
    15     7    11    1
    16     7    17    1
    17     8    11    1
    18     8    12    1
    19     8    15    1
    20     8    21    1
    21     9    12    1
    22     9    29    1
    23    10    13    1
    24    10    14    1
    25    10    30    1
    26    11    16    1
    27    11    31    1
    28    12    19    1
    29    13    15    1
    30    13    32    1
    31    14    18    1
    32    14    22    1
    33    14    25    1
    34    15    33    1
    35    15    34    1
    36    16    20    1
    37    16    35    1
    38    17    23    1
    39    17    36    1
    40    17    37    1
    41    18    38    1
    42    18    39    1
    43    19    20    1
    44    19    40    1
    45    20    24    1
    46    20    41    1
    47    21    24    1
    48    21    42    1
    49    21    43    1
    50    22    23    1
    51    22    44    1
    52    22    45    1
    53    23    46    1
    54    24    26    2
    55    25    47    1
    56    25    48    1
    57    25    49    1
    58    26    53    1
    59    26    54    1
    60    27    28    1
    61    28    55    1
    62    28    56    1
    63    28    57    1
