@<TRIPOS>MOLECULE
IMPHY012862
 55 59 0 0 0
SMALL
GASTEIGER

@<TRIPOS>ATOM
      1 O           3.9451    1.6435    0.0000 O.3     1  UNL1       -0.4677
      2 O           5.5222    2.3594    0.0000 O.2     1  UNL1       -0.2505
      3 O           9.8581    2.3278    0.0000 O.3     1  UNL1       -0.4951
      4 N           5.1025   -1.3891    0.0000 N.3     1  UNL1       -0.2937
      5 N           6.4864    1.0060    0.0000 N.pl3   1  UNL1       -0.3272
      6 C           6.9864   -0.5328    0.0000 C.3     1  UNL1        0.0320
      7 C           6.1774    0.0549    0.0000 C.3     1  UNL1        0.0492
      8 C           5.2194   -0.3540    0.0000 C.3     1  UNL1        0.0306
      9 C           5.3536    0.6355    0.0000 C.3     1  UNL1        0.0744
     10 C           3.5254   -0.1943    0.0000 C.3     1  UNL1       -0.0034
     11 C           4.4178    0.2079    0.0000 C.3     1  UNL1       -0.0282
     12 C           6.8935   -1.5703    0.0000 C.3     1  UNL1       -0.0279
     13 C           7.7954    0.0549    0.0000 C.ar    1  UNL1       -0.0173
     14 C           5.9452   -2.0013    0.0000 C.3     1  UNL1        0.0004
     15 C           3.4156   -1.1670    0.0000 C.2     1  UNL1       -0.0558
     16 C           4.1959   -1.7581    0.0000 C.3     1  UNL1        0.0207
     17 C           7.4864    1.0060    0.0000 C.ar    1  UNL1        0.0371
     18 C           4.9403    1.5461    0.0000 C.2     1  UNL1        0.3114
     19 C           8.8108   -0.1773    0.0000 C.ar    1  UNL1       -0.0527
     20 C           6.3819    2.0005    0.0000 C.3     1  UNL1        0.0011
     21 C           8.1714    1.7907    0.0000 C.ar    1  UNL1        0.0014
     22 C           2.4965   -1.5611    0.0000 C.2     1  UNL1       -0.0864
     23 C           9.5138    0.5914    0.0000 C.ar    1  UNL1       -0.0196
     24 C           9.1919    1.5820    0.0000 C.ar    1  UNL1        0.1219
     25 C           2.3782   -2.5540    0.0000 C.3     1  UNL1       -0.0465
     26 C           3.5317    2.5540    0.0000 C.3     1  UNL1        0.0817
     27 C          10.8371    2.1236    0.0000 C.3     1  UNL1        0.0788
     28 H           6.7670    0.2465    0.0000 H       1  UNL1        0.0524
     29 H           5.2837    0.2626    0.0000 H       1  UNL1        0.0481
     30 H           5.8326    1.0292    0.0000 H       1  UNL1        0.0429
     31 H           3.0239    0.1702    0.0000 H       1  UNL1        0.0355
     32 H           4.8583    0.6443    0.0000 H       1  UNL1        0.0287
     33 H           4.0667    0.7189    0.0000 H       1  UNL1        0.0287
     34 H           7.0497   -2.1703    0.0000 H       1  UNL1        0.0287
     35 H           7.5114   -1.5191    0.0000 H       1  UNL1        0.0287
     36 H           5.5003   -2.4331    0.0000 H       1  UNL1        0.0427
     37 H           6.2946   -2.5135    0.0000 H       1  UNL1        0.0427
     38 H           3.7396   -2.1780    0.0000 H       1  UNL1        0.0473
     39 H           4.5279   -2.2817    0.0000 H       1  UNL1        0.0473
     40 H           8.9956   -0.7691    0.0000 H       1  UNL1        0.0622
     41 H           6.9985    2.0653    0.0000 H       1  UNL1        0.0428
     42 H           6.3171    2.6171    0.0000 H       1  UNL1        0.0428
     43 H           5.7653    1.9357    0.0000 H       1  UNL1        0.0428
     44 H           7.9730    2.3781    0.0000 H       1  UNL1        0.0673
     45 H           2.0000   -1.1897    0.0000 H       1  UNL1        0.0569
     46 H          10.1197    0.4601    0.0000 H       1  UNL1        0.0654
     47 H           1.7626   -2.4807    0.0000 H       1  UNL1        0.0272
     48 H           2.3048   -3.1697    0.0000 H       1  UNL1        0.0272
     49 H           2.9938   -2.6274    0.0000 H       1  UNL1        0.0272
     50 H           4.0963    2.8103    0.0000 H       1  UNL1        0.0661
     51 H           3.2755    3.1186    0.0000 H       1  UNL1        0.0661
     52 H           2.9672    2.2978    0.0000 H       1  UNL1        0.0661
     53 H          10.7105    1.5167    0.0000 H       1  UNL1        0.0660
     54 H          11.4440    1.9970    0.0000 H       1  UNL1        0.0660
     55 H          10.9636    2.7306    0.0000 H       1  UNL1        0.0660
@<TRIPOS>BOND
     1     1    18    1
     2     1    26    1
     3     2    18    2
     4     3    24    1
     5     3    27    1
     6     4     8    1
     7     4    14    1
     8     4    16    1
     9     5     7    1
    10     5    17    1
    11     5    20    1
    12     6     7    1
    13     6     9    1
    14     6    12    1
    15     6    13    1
    16     7     8    1
    17     7    28    1
    18     8    11    1
    19     8    29    1
    20     9    10    1
    21     9    18    1
    22     9    30    1
    23    10    11    1
    24    10    15    1
    25    10    31    1
    26    11    32    1
    27    11    33    1
    28    12    14    1
    29    12    34    1
    30    12    35    1
    31    13    17   ar
    32    13    19   ar
    33    14    36    1
    34    14    37    1
    35    15    16    1
    36    15    22    2
    37    16    38    1
    38    16    39    1
    39    17    21   ar
    40    19    23   ar
    41    19    40    1
    42    20    41    1
    43    20    42    1
    44    20    43    1
    45    21    24   ar
    46    21    44    1
    47    22    25    1
    48    22    45    1
    49    23    24   ar
    50    23    46    1
    51    25    47    1
    52    25    48    1
    53    25    49    1
    54    26    50    1
    55    26    51    1
    56    26    52    1
    57    27    53    1
    58    27    54    1
    59    27    55    1
