@<TRIPOS>MOLECULE
IMPHY000481
 80 83 0 0 0
SMALL
GASTEIGER

@<TRIPOS>ATOM
      1 O           6.8342    0.7501    0.0000 O.3     1  UNL1       -0.4567
      2 O           4.9665    0.7501    0.0000 O.3     1  UNL1       -0.4496
      3 O           8.6860    0.1304    0.0000 O.3     1  UNL1       -0.4607
      4 O           5.4444   -3.8575    0.0000 O.3     1  UNL1       -0.3883
      5 O           2.4217   -1.9831    0.0000 O.3     1  UNL1       -0.3875
      6 O           9.2820   -3.0115    0.0000 O.3     1  UNL1       -0.3874
      7 O           8.5614    0.8795    0.0000 O.2     1  UNL1       -0.2512
      8 O           6.5270    1.5016    0.0000 O.2     1  UNL1       -0.2449
      9 O           9.9692   -1.0329    0.0000 O.2     1  UNL1       -0.2512
     10 C           4.9994   -1.9077    0.0000 C.3     1  UNL1        0.0270
     11 C           7.0238   -0.9327    0.0000 C.3     1  UNL1        0.0524
     12 C           6.8013   -1.9077    0.0000 C.3     1  UNL1       -0.0046
     13 C           5.9003   -2.3415    0.0000 C.3     1  UNL1       -0.0335
     14 C           4.7768   -0.9327    0.0000 C.2     1  UNL1       -0.0156
     15 C           6.4004   -0.1509    0.0000 C.3     1  UNL1        0.1528
     16 C           4.1447   -2.4153    0.0000 C.3     1  UNL1       -0.0109
     17 C           5.4004   -0.1509    0.0000 C.3     1  UNL1        0.1627
     18 C           8.0143   -0.6104    0.0000 C.3     1  UNL1        0.1151
     19 C           5.2219   -2.8826    0.0000 C.3     1  UNL1        0.0700
     20 C           3.3966   -1.7606    0.0000 C.3     1  UNL1        0.0773
     21 C           7.5538   -2.6278    0.0000 C.2     1  UNL1       -0.0446
     22 C           3.7866   -0.8462    0.0000 C.2     1  UNL1       -0.0411
     23 C           8.7833   -1.3130    0.0000 C.3     1  UNL1        0.0149
     24 C           7.2464    0.0422    0.0000 C.3     1  UNL1       -0.0521
     25 C           8.5516   -2.3285    0.0000 C.3     1  UNL1        0.0797
     26 C           4.2470   -3.1051    0.0000 C.3     1  UNL1       -0.0355
     27 C           6.1774   -3.1774    0.0000 C.3     1  UNL1       -0.0355
     28 C           3.2722    0.0114    0.0000 C.3     1  UNL1       -0.0410
     29 C           7.3201   -3.6001    0.0000 C.2     1  UNL1       -0.0967
     30 C           7.6605    1.3134    0.0000 C.2     1  UNL1        0.3043
     31 C           5.5298    1.5763    0.0000 C.2     1  UNL1        0.3399
     32 C           9.6634   -0.0808    0.0000 C.2     1  UNL1        0.3042
     33 C           7.5858    2.3106    0.0000 C.3     1  UNL1        0.0332
     34 C          10.3351    0.6601    0.0000 C.3     1  UNL1        0.0332
     35 C           5.0959    2.4773    0.0000 C.ar    1  UNL1        0.0590
     36 C           5.6592    3.3035    0.0000 C.ar    1  UNL1       -0.0478
     37 C           4.0987    2.5520    0.0000 C.ar    1  UNL1       -0.0478
     38 C           5.2254    4.2045    0.0000 C.ar    1  UNL1       -0.0610
     39 C           3.6648    3.4530    0.0000 C.ar    1  UNL1       -0.0610
     40 C           4.2282    4.2792    0.0000 C.ar    1  UNL1       -0.0617
     41 H           6.6681   -2.7472    0.0000 H       1  UNL1        0.0354
     42 H           5.5138   -2.8263    0.0000 H       1  UNL1        0.0281
     43 H           6.2869   -2.8263    0.0000 H       1  UNL1        0.0281
     44 H           6.0705    0.3741    0.0000 H       1  UNL1        0.0782
     45 H           3.6896   -2.8364    0.0000 H       1  UNL1        0.0303
     46 H           4.5156   -2.9121    0.0000 H       1  UNL1        0.0303
     47 H           4.7842   -0.0815    0.0000 H       1  UNL1        0.0820
     48 H           7.6774   -0.0899    0.0000 H       1  UNL1        0.0742
     49 H           2.9991   -1.2848    0.0000 H       1  UNL1        0.0640
     50 H           9.3553   -1.5524    0.0000 H       1  UNL1        0.0329
     51 H           9.1170   -0.7905    0.0000 H       1  UNL1        0.0329
     52 H           7.8508   -0.0958    0.0000 H       1  UNL1        0.0238
     53 H           7.3843    0.6466    0.0000 H       1  UNL1        0.0238
     54 H           6.6419    0.1801    0.0000 H       1  UNL1        0.0238
     55 H           9.1444   -2.1469    0.0000 H       1  UNL1        0.0641
     56 H           4.1090   -2.5006    0.0000 H       1  UNL1        0.0257
     57 H           3.6425   -3.2431    0.0000 H       1  UNL1        0.0257
     58 H           5.9947   -3.7698    0.0000 H       1  UNL1        0.0257
     59 H           6.7699   -3.3601    0.0000 H       1  UNL1        0.0257
     60 H           6.3602   -2.5849    0.0000 H       1  UNL1        0.0257
     61 H           4.3849   -3.7096    0.0000 H       1  UNL1        0.0257
     62 H           3.8039    0.3303    0.0000 H       1  UNL1        0.0275
     63 H           2.9533    0.5431    0.0000 H       1  UNL1        0.0275
     64 H           2.7405   -0.3075    0.0000 H       1  UNL1        0.0275
     65 H           4.9899   -4.2792    0.0000 H       1  UNL1        0.2102
     66 H           6.7255   -3.7760    0.0000 H       1  UNL1        0.0535
     67 H           7.7696   -4.0271    0.0000 H       1  UNL1        0.0535
     68 H           2.0000   -1.5286    0.0000 H       1  UNL1        0.2102
     69 H           9.8751   -2.8311    0.0000 H       1  UNL1        0.2102
     70 H           8.2040    2.3569    0.0000 H       1  UNL1        0.0342
     71 H           7.5394    2.9288    0.0000 H       1  UNL1        0.0342
     72 H           6.9675    2.2642    0.0000 H       1  UNL1        0.0342
     73 H          10.7944    0.2436    0.0000 H       1  UNL1        0.0342
     74 H          10.7515    1.1194    0.0000 H       1  UNL1        0.0342
     75 H           9.8758    1.0765    0.0000 H       1  UNL1        0.0342
     76 H           6.2775    3.2572    0.0000 H       1  UNL1        0.0626
     77 H           3.7494    2.0398    0.0000 H       1  UNL1        0.0626
     78 H           5.5746    4.7168    0.0000 H       1  UNL1        0.0618
     79 H           3.0466    3.4993    0.0000 H       1  UNL1        0.0618
     80 H           3.9592    4.8378    0.0000 H       1  UNL1        0.0618
@<TRIPOS>BOND
     1    15     1    1
     2     1    30    1
     3    17     2    1
     4     2    31    1
     5    18     3    1
     6     3    32    1
     7     4    19    1
     8     4    65    1
     9    20     5    1
    10     5    68    1
    11    25     6    1
    12     6    69    1
    13     7    30    2
    14     8    31    2
    15     9    32    2
    16    10    13    1
    17    10    14    1
    18    10    16    1
    19    10    19    1
    20    11    12    1
    21    11    15    1
    22    11    18    1
    23    11    24    1
    24    12    13    1
    25    12    21    1
    26    12    41    1
    27    13    42    1
    28    13    43    1
    29    14    17    1
    30    14    22    2
    31    15    17    1
    32    15    44    1
    33    16    20    1
    34    16    45    1
    35    16    46    1
    36    17    47    1
    37    18    23    1
    38    18    48    1
    39    19    26    1
    40    19    27    1
    41    20    22    1
    42    20    49    1
    43    21    25    1
    44    21    29    2
    45    22    28    1
    46    23    25    1
    47    23    50    1
    48    23    51    1
    49    24    52    1
    50    24    53    1
    51    24    54    1
    52    25    55    1
    53    26    56    1
    54    26    57    1
    55    26    61    1
    56    27    58    1
    57    27    59    1
    58    27    60    1
    59    28    62    1
    60    28    63    1
    61    28    64    1
    62    29    66    1
    63    29    67    1
    64    30    33    1
    65    31    35    1
    66    32    34    1
    67    33    70    1
    68    33    71    1
    69    33    72    1
    70    34    73    1
    71    34    74    1
    72    34    75    1
    73    35    36   ar
    74    35    37   ar
    75    36    38   ar
    76    36    76    1
    77    37    39   ar
    78    37    77    1
    79    38    40   ar
    80    38    78    1
    81    39    40   ar
    82    39    79    1
    83    40    80    1
