@<TRIPOS>MOLECULE
IMPHY001744
 41 45 0 0 0
SMALL
GASTEIGER

@<TRIPOS>ATOM
      1 O           4.3798   -0.7829    0.0000 O.2     1  UNL1       -0.4502
      2 O           6.8686    2.9181    0.0000 O.3     1  UNL1       -0.4524
      3 O           5.4717    3.7175    0.0000 O.3     1  UNL1       -0.4489
      4 O           2.5836   -3.6291    0.0000 O.2     1  UNL1       -0.4628
      5 O           7.0479   -0.2793    0.0000 O.3     1  UNL1       -0.4883
      6 O           3.5342    2.7382    0.0000 O.3     1  UNL1       -0.4913
      7 O           7.0321   -2.3275    0.0000 O.2     1  UNL1       -0.2831
      8 C           4.3958   -1.8244    0.0000 C.ar    1  UNL1        0.1503
      9 C           5.2778   -0.2551    0.0000 C.ar    1  UNL1        0.1811
     10 C           5.2619   -2.3244    0.0000 C.ar    1  UNL1        0.0685
     11 C           5.2740    0.7449    0.0000 C.ar    1  UNL1        0.0282
     12 C           3.5298   -2.3244    0.0000 C.ar    1  UNL1        0.0630
     13 C           6.1799   -0.7759    0.0000 C.ar    1  UNL1        0.2106
     14 C           6.1719   -1.8175    0.0000 C.ar    1  UNL1        0.2346
     15 C           3.5298   -3.3244    0.0000 C.ar    1  UNL1        0.1383
     16 C           6.1342    2.2482    0.0000 C.ar    1  UNL1        0.1706
     17 C           6.1381    1.2482    0.0000 C.ar    1  UNL1       -0.0051
     18 C           5.2663    2.7449    0.0000 C.ar    1  UNL1        0.2076
     19 C           4.4060    1.2416    0.0000 C.ar    1  UNL1       -0.0053
     20 C           5.2619   -3.3244    0.0000 C.ar    1  UNL1       -0.0438
     21 C           4.4022    2.2415    0.0000 C.ar    1  UNL1        0.1660
     22 C           4.3958   -3.8244    0.0000 C.ar    1  UNL1       -0.0179
     23 C           2.5836   -2.0196    0.0000 C.ar    1  UNL1       -0.0126
     24 C           6.4600    3.8244    0.0000 C.3     1  UNL1        0.2334
     25 C           2.0000   -2.8244    0.0000 C.ar    1  UNL1        0.0932
     26 C           7.9120   -0.7826    0.0000 C.3     1  UNL1        0.0791
     27 C           3.5304    3.7382    0.0000 C.3     1  UNL1        0.0790
     28 H           6.6762    0.9403    0.0000 H       1  UNL1        0.0662
     29 H           3.8703    0.9295    0.0000 H       1  UNL1        0.0662
     30 H           5.7988   -3.6344    0.0000 H       1  UNL1        0.0627
     31 H           4.3958   -4.4444    0.0000 H       1  UNL1        0.0655
     32 H           2.3910   -1.4303    0.0000 H       1  UNL1        0.0656
     33 H           7.0489    4.0184    0.0000 H       1  UNL1        0.1166
     34 H           6.3290    4.4304    0.0000 H       1  UNL1        0.1166
     35 H           1.3800   -2.8244    0.0000 H       1  UNL1        0.1030
     36 H           7.5999   -1.3183    0.0000 H       1  UNL1        0.0660
     37 H           8.4477   -1.0947    0.0000 H       1  UNL1        0.0660
     38 H           8.2240   -0.2469    0.0000 H       1  UNL1        0.0660
     39 H           4.1504    3.7406    0.0000 H       1  UNL1        0.0660
     40 H           3.5280    4.3582    0.0000 H       1  UNL1        0.0660
     41 H           2.9104    3.7358    0.0000 H       1  UNL1        0.0660
@<TRIPOS>BOND
     1     1     8   ar
     2     1     9   ar
     3     2    16    1
     4     2    24    1
     5     3    18    1
     6     3    24    1
     7     4    15   ar
     8     4    25   ar
     9     5    13    1
    10     5    26    1
    11     6    21    1
    12     6    27    1
    13     7    14    2
    14     8    10   ar
    15     8    12   ar
    16     9    11    1
    17     9    13   ar
    18    10    14   ar
    19    10    20   ar
    20    11    17   ar
    21    11    19   ar
    22    12    15   ar
    23    12    23   ar
    24    13    14   ar
    25    15    22   ar
    26    16    17   ar
    27    16    18   ar
    28    17    28    1
    29    18    21   ar
    30    19    21   ar
    31    19    29    1
    32    20    22   ar
    33    20    30    1
    34    22    31    1
    35    23    25   ar
    36    23    32    1
    37    24    33    1
    38    24    34    1
    39    25    35    1
    40    26    36    1
    41    26    37    1
    42    26    38    1
    43    27    39    1
    44    27    40    1
    45    27    41    1
