@<TRIPOS>MOLECULE
IMPHY004739
 54 57 0 0 0
SMALL
GASTEIGER

@<TRIPOS>ATOM
      1 O           4.5981    0.1550    0.0000 O.3     1  UNL1       -0.3313
      2 O           6.3301    0.1550    0.0000 O.3     1  UNL1       -0.4601
      3 O           4.5981   -2.8450    0.0000 O.3     1  UNL1       -0.3864
      4 O           2.8660   -1.8450    0.0000 O.3     1  UNL1       -0.3865
      5 O           6.3301   -1.8450    0.0000 O.3     1  UNL1       -0.3829
      6 O           2.0000   -0.3450    0.0000 O.3     1  UNL1       -0.3924
      7 O           8.9282    1.6550    0.0000 O.2     1  UNL1       -0.4542
      8 O           8.9282   -1.3450    0.0000 O.2     1  UNL1       -0.2869
      9 O          10.6766   -1.3796    0.0000 O.3     1  UNL1       -0.5058
     10 O          12.4583    1.6792    0.0000 O.3     1  UNL1       -0.4949
     11 C           4.5981   -1.8450    0.0000 C.3     1  UNL1        0.1152
     12 C           3.7320   -1.3450    0.0000 C.3     1  UNL1        0.1120
     13 C           5.4641   -1.3450    0.0000 C.3     1  UNL1        0.1454
     14 C           3.7320   -0.3450    0.0000 C.3     1  UNL1        0.1140
     15 C           5.4641   -0.3450    0.0000 C.3     1  UNL1        0.2308
     16 C           2.8660    0.1550    0.0000 C.3     1  UNL1        0.0731
     17 C           6.3301    1.1550    0.0000 C.ar    1  UNL1        0.1346
     18 C           7.1962    1.6550    0.0000 C.ar    1  UNL1        0.0591
     19 C           5.4641    1.6550    0.0000 C.ar    1  UNL1       -0.0191
     20 C           8.0622    1.1550    0.0000 C.ar    1  UNL1        0.1427
     21 C           7.1962    2.6550    0.0000 C.ar    1  UNL1       -0.0476
     22 C           5.4641    2.6550    0.0000 C.ar    1  UNL1       -0.0583
     23 C           6.3301    3.1550    0.0000 C.ar    1  UNL1       -0.0609
     24 C           8.0622    0.1550    0.0000 C.ar    1  UNL1        0.0289
     25 C           9.7942    1.1550    0.0000 C.ar    1  UNL1        0.1462
     26 C           9.7942    0.1550    0.0000 C.ar    1  UNL1        0.1055
     27 C           8.9282   -0.3450    0.0000 C.ar    1  UNL1        0.1966
     28 C          10.6882   -0.3797    0.0000 C.ar    1  UNL1        0.1347
     29 C          10.6882    1.6897    0.0000 C.ar    1  UNL1        0.0233
     30 C          11.5942    1.1758    0.0000 C.ar    1  UNL1        0.1271
     31 C          11.5942    0.1342    0.0000 C.ar    1  UNL1        0.0225
     32 C          12.4545    2.6791    0.0000 C.3     1  UNL1        0.0788
     33 H           5.1350   -2.1550    0.0000 H       1  UNL1        0.0648
     34 H           3.7320   -1.9650    0.0000 H       1  UNL1        0.0647
     35 H           6.0010   -1.0350    0.0000 H       1  UNL1        0.0683
     36 H           3.7320    0.2750    0.0000 H       1  UNL1        0.0647
     37 H           5.4641    0.2750    0.0000 H       1  UNL1        0.1084
     38 H           3.2646    0.6299    0.0000 H       1  UNL1        0.0584
     39 H           2.4675    0.6299    0.0000 H       1  UNL1        0.0584
     40 H           5.1350   -3.1550    0.0000 H       1  UNL1        0.2100
     41 H           2.8660   -2.4650    0.0000 H       1  UNL1        0.2100
     42 H           6.8671   -1.5350    0.0000 H       1  UNL1        0.2102
     43 H           2.0000   -0.9650    0.0000 H       1  UNL1        0.2095
     44 H           4.9272    1.3450    0.0000 H       1  UNL1        0.0654
     45 H           7.7331    2.9650    0.0000 H       1  UNL1        0.0626
     46 H           4.9272    2.9650    0.0000 H       1  UNL1        0.0619
     47 H           6.3301    3.7750    0.0000 H       1  UNL1        0.0618
     48 H           7.5252   -0.1550    0.0000 H       1  UNL1        0.0693
     49 H          10.6810    2.3096    0.0000 H       1  UNL1        0.0691
     50 H          12.1300   -0.1779    0.0000 H       1  UNL1        0.0691
     51 H          11.2099   -1.6958    0.0000 H       1  UNL1        0.2922
     52 H          13.0745    2.6815    0.0000 H       1  UNL1        0.0660
     53 H          12.4521    3.2991    0.0000 H       1  UNL1        0.0660
     54 H          11.8345    2.6768    0.0000 H       1  UNL1        0.0660
@<TRIPOS>BOND
     1     1    14    1
     2     1    15    1
     3    15     2    1
     4     2    17    1
     5    11     3    1
     6     3    40    1
     7    12     4    1
     8     4    41    1
     9     5    13    1
    10     5    42    1
    11     6    16    1
    12     6    43    1
    13     7    20   ar
    14     7    25   ar
    15     8    27    2
    16     9    28    1
    17     9    51    1
    18    10    30    1
    19    10    32    1
    20    11    12    1
    21    11    13    1
    22    11    33    1
    23    12    14    1
    24    12    34    1
    25    13    15    1
    26    13    35    1
    27    14    16    1
    28    14    36    1
    29    15    37    1
    30    16    38    1
    31    16    39    1
    32    17    18   ar
    33    17    19   ar
    34    18    20    1
    35    18    21   ar
    36    19    22   ar
    37    19    44    1
    38    20    24   ar
    39    21    23   ar
    40    21    45    1
    41    22    23   ar
    42    22    46    1
    43    23    47    1
    44    24    27   ar
    45    24    48    1
    46    25    26   ar
    47    25    29   ar
    48    26    27   ar
    49    26    28   ar
    50    28    31   ar
    51    29    30   ar
    52    29    49    1
    53    30    31   ar
    54    31    50    1
    55    32    52    1
    56    32    53    1
    57    32    54    1
