@<TRIPOS>MOLECULE
IMPHY008783
 30 32 0 0 0
SMALL
GASTEIGER

@<TRIPOS>ATOM
      1 CL          2.0000    1.7568    0.0000 Cl      1  UNL1       -0.0835
      2 CL          9.8602   -1.7673    0.0000 Cl      1  UNL1       -0.0835
      3 O           5.5301   -0.2673    0.0000 O.3     1  UNL1       -0.4839
      4 C           6.3961    0.2327    0.0000 C.3     1  UNL1        0.1255
      5 C           6.3961    1.2327    0.0000 C.3     1  UNL1       -0.0074
      6 C           5.5301    1.7327    0.0000 C.3     1  UNL1       -0.0205
      7 C           4.6641    1.2327    0.0000 C.ar    1  UNL1       -0.0042
      8 C           7.2622   -0.2673    0.0000 C.ar    1  UNL1       -0.0073
      9 C           4.6641    0.2327    0.0000 C.ar    1  UNL1        0.1246
     10 C           3.7702    1.7673    0.0000 C.ar    1  UNL1       -0.0367
     11 C           3.7702   -0.3020    0.0000 C.ar    1  UNL1       -0.0183
     12 C           7.2622   -1.2673    0.0000 C.ar    1  UNL1       -0.0537
     13 C           8.1282    0.2327    0.0000 C.ar    1  UNL1       -0.0537
     14 C           2.8641    1.2535    0.0000 C.ar    1  UNL1        0.0415
     15 C           2.8641    0.2119    0.0000 C.ar    1  UNL1       -0.0399
     16 C           8.1282   -1.7673    0.0000 C.ar    1  UNL1       -0.0430
     17 C           8.9942   -0.2673    0.0000 C.ar    1  UNL1       -0.0430
     18 C           8.9942   -1.2673    0.0000 C.ar    1  UNL1        0.0410
     19 H           7.1323    0.6577    0.0000 H       1  UNL1        0.0784
     20 H           7.0067    1.1250    0.0000 H       1  UNL1        0.0307
     21 H           6.6082    1.8153    0.0000 H       1  UNL1        0.0307
     22 H           5.9286    2.2076    0.0000 H       1  UNL1        0.0316
     23 H           5.1316    2.2076    0.0000 H       1  UNL1        0.0316
     24 H           3.7773    2.3873    0.0000 H       1  UNL1        0.0636
     25 H           3.7773   -0.9220    0.0000 H       1  UNL1        0.0655
     26 H           6.7252   -1.5773    0.0000 H       1  UNL1        0.0622
     27 H           8.1282    0.8527    0.0000 H       1  UNL1        0.0622
     28 H           2.3284   -0.1002    0.0000 H       1  UNL1        0.0633
     29 H           8.1282   -2.3873    0.0000 H       1  UNL1        0.0632
     30 H           9.5312    0.0427    0.0000 H       1  UNL1        0.0632
@<TRIPOS>BOND
     1     1    14    1
     2     2    18    1
     3     3     4    1
     4     3     9    1
     5     4     5    1
     6     4     8    1
     7     4    19    1
     8     5     6    1
     9     5    20    1
    10     5    21    1
    11     6     7    1
    12     6    22    1
    13     6    23    1
    14     7     9   ar
    15     7    10   ar
    16     8    12   ar
    17     8    13   ar
    18     9    11   ar
    19    10    14   ar
    20    10    24    1
    21    11    15   ar
    22    11    25    1
    23    12    16   ar
    24    12    26    1
    25    13    17   ar
    26    13    27    1
    27    14    15   ar
    28    15    28    1
    29    16    18   ar
    30    16    29    1
    31    17    18   ar
    32    17    30    1
