@<TRIPOS>MOLECULE
IMPHY002313
 42 45 0 0 0
SMALL
GASTEIGER

@<TRIPOS>ATOM
      1 O           3.9030   -0.6778    0.0000 O.2     1  UNL1       -0.4915
      2 O           2.8698   -0.0633    0.0000 O.3     1  UNL1       -0.4914
      3 O           4.3759   -2.6092    0.0000 O.2     1  UNL1       -0.2840
      4 O           2.8660    1.9892    0.0000 O.3     1  UNL1       -0.5033
      5 N           7.2787    0.4642    0.0000 N.3     1  UNL1       -0.2854
      6 C           6.4091   -0.0378    0.0000 C.3     1  UNL1        0.0918
      7 C           6.6192   -1.0137    0.0000 C.2     1  UNL1       -0.0362
      8 C           8.0187   -0.2056    0.0000 C.3     1  UNL1        0.0040
      9 C           7.6119   -1.1172    0.0000 C.3     1  UNL1       -0.0161
     10 C           5.5395    0.4642    0.0000 C.ar    1  UNL1       -0.0122
     11 C           7.2787    1.4683    0.0000 C.3     1  UNL1        0.0043
     12 C           6.4091    1.9704    0.0000 C.3     1  UNL1       -0.0144
     13 C           5.5395    1.4683    0.0000 C.ar    1  UNL1       -0.0369
     14 C           5.3894   -0.2410    0.0000 C.2     1  UNL1       -0.0098
     15 C           6.1128   -1.6563    0.0000 C.2     1  UNL1       -0.0096
     16 C           4.6418   -0.0727    0.0000 C.ar    1  UNL1       -0.0105
     17 C           4.8699   -0.9331    0.0000 C.2     1  UNL1        0.1650
     18 C           4.6418    2.0052    0.0000 C.ar    1  UNL1       -0.0130
     19 C           4.9828   -1.8144    0.0000 C.2     1  UNL1        0.2200
     20 C           3.7320    0.4433    0.0000 C.ar    1  UNL1        0.1616
     21 C           3.7320    1.4892    0.0000 C.ar    1  UNL1        0.1587
     22 C           3.1985   -1.3874    0.0000 C.3     1  UNL1        0.0790
     23 C           2.0000    0.4301    0.0000 C.3     1  UNL1        0.0790
     24 H           8.5552   -0.5164    0.0000 H       1  UNL1        0.0430
     25 H           8.3841    0.2952    0.0000 H       1  UNL1        0.0430
     26 H           7.4832   -1.7237    0.0000 H       1  UNL1        0.0323
     27 H           8.2015   -1.3090    0.0000 H       1  UNL1        0.0323
     28 H           7.8892    1.3607    0.0000 H       1  UNL1        0.0430
     29 H           7.4907    2.0509    0.0000 H       1  UNL1        0.0430
     30 H           6.8076    2.4453    0.0000 H       1  UNL1        0.0326
     31 H           6.0106    2.4453    0.0000 H       1  UNL1        0.0326
     32 H           5.0592    0.2837    0.0000 H       1  UNL1        0.0635
     33 H           6.4215   -2.1940    0.0000 H       1  UNL1        0.0657
     34 H           4.6490   -0.6927    0.0000 H       1  UNL1        0.0659
     35 H           4.6490    2.6252    0.0000 H       1  UNL1        0.0658
     36 H           2.8660    2.6092    0.0000 H       1  UNL1        0.2923
     37 H           2.7585   -0.9506    0.0000 H       1  UNL1        0.0660
     38 H           2.7616   -1.8274    0.0000 H       1  UNL1        0.0660
     39 H           3.6384   -1.8242    0.0000 H       1  UNL1        0.0660
     40 H           2.3059    0.9694    0.0000 H       1  UNL1        0.0660
     41 H           1.4607    0.7359    0.0000 H       1  UNL1        0.0660
     42 H           1.6941   -0.1092    0.0000 H       1  UNL1        0.0660
@<TRIPOS>BOND
     1     1    17    1
     2     1    22    1
     3     2    20    1
     4     2    23    1
     5     3    19    2
     6     4    21    1
     7     4    36    1
     8     5     6    1
     9     5     8    1
    10     5    11    1
    11     6     7    1
    12     6    10    1
    13     6    14    1
    14     7     9    1
    15     7    15    2
    16     8     9    1
    17     8    24    1
    18     8    25    1
    19     9    26    1
    20     9    27    1
    21    10    13   ar
    22    10    16   ar
    23    11    12    1
    24    11    28    1
    25    11    29    1
    26    12    13    1
    27    12    30    1
    28    12    31    1
    29    13    18   ar
    30    14    17    2
    31    14    32    1
    32    15    19    1
    33    15    33    1
    34    16    20   ar
    35    16    34    1
    36    17    19    1
    37    18    21   ar
    38    18    35    1
    39    20    21   ar
    40    22    37    1
    41    22    38    1
    42    22    39    1
    43    23    40    1
    44    23    41    1
    45    23    42    1
