@<TRIPOS>MOLECULE
IMPHY006170
 25 25 0 0 0
SMALL
GASTEIGER

@<TRIPOS>ATOM
      1 CL          2.0000   -4.2500    0.0000 Cl      1  UNL1       -0.0835
      2 CL          6.3301    4.2500    0.0000 Cl      1  UNL1       -0.1116
      3 O           4.5981    0.2500    0.0000 O.3     1  UNL1       -0.4372
      4 O           5.4641   -1.2500    0.0000 O.2     1  UNL1       -0.2261
      5 N           3.7320   -1.2500    0.0000 N.am    1  UNL1       -0.2511
      6 C           3.7320   -2.2500    0.0000 C.ar    1  UNL1        0.0378
      7 C           2.8660   -2.7500    0.0000 C.ar    1  UNL1       -0.0220
      8 C           4.5981   -2.7500    0.0000 C.ar    1  UNL1       -0.0403
      9 C           2.8660   -3.7500    0.0000 C.ar    1  UNL1        0.0427
     10 C           4.5981   -3.7500    0.0000 C.ar    1  UNL1       -0.0586
     11 C           3.7320   -4.2500    0.0000 C.ar    1  UNL1       -0.0433
     12 C           4.5981   -0.7500    0.0000 C.2     1  UNL1        0.4055
     13 C           5.4641    0.7500    0.0000 C.3     1  UNL1        0.1544
     14 C           5.4641    1.7500    0.0000 C.1     1  UNL1       -0.0601
     15 C           5.4641    2.7500    0.0000 C.1     1  UNL1       -0.0830
     16 C           5.4641    3.7500    0.0000 C.3     1  UNL1        0.0839
     17 H           2.3291   -2.4400    0.0000 H       1  UNL1        0.0651
     18 H           5.1350   -2.4400    0.0000 H       1  UNL1        0.0636
     19 H           3.1951   -0.9400    0.0000 H       1  UNL1        0.1582
     20 H           5.1350   -4.0600    0.0000 H       1  UNL1        0.0619
     21 H           3.7320   -4.8700    0.0000 H       1  UNL1        0.0632
     22 H           5.6762    0.1674    0.0000 H       1  UNL1        0.0838
     23 H           6.0747    0.8577    0.0000 H       1  UNL1        0.0838
     24 H           5.2520    4.3326    0.0000 H       1  UNL1        0.0565
     25 H           4.8535    3.6423    0.0000 H       1  UNL1        0.0565
@<TRIPOS>BOND
     1     1     9    1
     2     2    16    1
     3     3    12    1
     4     3    13    1
     5     4    12    2
     6     5     6    1
     7     5    12   am
     8     5    19    1
     9     6     7   ar
    10     6     8   ar
    11     7     9   ar
    12     7    17    1
    13     8    10   ar
    14     8    18    1
    15     9    11   ar
    16    10    11   ar
    17    10    20    1
    18    11    21    1
    19    13    14    1
    20    13    22    1
    21    13    23    1
    22    14    15    3
    23    15    16    1
    24    16    24    1
    25    16    25    1
