@<TRIPOS>MOLECULE
IMPHY003589
 40 41 0 0 0
SMALL
GASTEIGER

@<TRIPOS>ATOM
      1 O           3.0000   -2.1036    0.0000 O.2     1  UNL1       -0.2924
      2 C           5.0000   -0.3716    0.0000 C.3     1  UNL1       -0.0132
      3 C           5.5878    0.4374    0.0000 C.3     1  UNL1       -0.0321
      4 C           5.5878   -1.1806    0.0000 C.3     1  UNL1       -0.0373
      5 C           6.5388    0.1284    0.0000 C.3     1  UNL1       -0.0492
      6 C           6.5388   -0.8716    0.0000 C.3     1  UNL1       -0.0497
      7 C           4.5000   -1.2376    0.0000 C.3     1  UNL1        0.0166
      8 C           4.5000    0.4945    0.0000 C.3     1  UNL1       -0.0275
      9 C           5.2788    1.3885    0.0000 C.3     1  UNL1       -0.0434
     10 C           5.2788   -2.1316    0.0000 C.3     1  UNL1       -0.0619
     11 C           3.5000   -1.2376    0.0000 C.2     1  UNL1        0.1592
     12 C           3.5000    0.4945    0.0000 C.2     1  UNL1       -0.0772
     13 C           5.9479    2.1316    0.0000 C.3     1  UNL1       -0.0624
     14 C           4.3006    1.5964    0.0000 C.3     1  UNL1       -0.0624
     15 C           3.0000   -0.3716    0.0000 C.2     1  UNL1       -0.0119
     16 C           2.0000   -0.3716    0.0000 C.3     1  UNL1       -0.0367
     17 H           6.0262    0.8759    0.0000 H       1  UNL1        0.0309
     18 H           6.0262   -1.6190    0.0000 H       1  UNL1        0.0304
     19 H           7.1554    0.0636    0.0000 H       1  UNL1        0.0268
     20 H           6.6678    0.7349    0.0000 H       1  UNL1        0.0268
     21 H           6.6678   -1.4780    0.0000 H       1  UNL1        0.0268
     22 H           7.1554   -0.8068    0.0000 H       1  UNL1        0.0268
     23 H           4.3923   -1.8482    0.0000 H       1  UNL1        0.0351
     24 H           5.0826   -1.4497    0.0000 H       1  UNL1        0.0351
     25 H           5.0826    0.7065    0.0000 H       1  UNL1        0.0313
     26 H           4.3923    1.1050    0.0000 H       1  UNL1        0.0313
     27 H           4.8639    0.9278    0.0000 H       1  UNL1        0.0298
     28 H           4.6891   -1.9401    0.0000 H       1  UNL1        0.0233
     29 H           5.0872   -2.7213    0.0000 H       1  UNL1        0.0233
     30 H           5.8684   -2.3232    0.0000 H       1  UNL1        0.0233
     31 H           3.1900    1.0314    0.0000 H       1  UNL1        0.0576
     32 H           6.4086    1.7168    0.0000 H       1  UNL1        0.0232
     33 H           6.3628    2.5924    0.0000 H       1  UNL1        0.0232
     34 H           5.4872    2.5465    0.0000 H       1  UNL1        0.0232
     35 H           4.4295    2.2029    0.0000 H       1  UNL1        0.0232
     36 H           3.6942    1.7253    0.0000 H       1  UNL1        0.0232
     37 H           4.1717    0.9900    0.0000 H       1  UNL1        0.0232
     38 H           2.0000    0.2484    0.0000 H       1  UNL1        0.0278
     39 H           1.3800   -0.3716    0.0000 H       1  UNL1        0.0278
     40 H           2.0000   -0.9916    0.0000 H       1  UNL1        0.0278
@<TRIPOS>BOND
     1     1    11    2
     2     2     3    1
     3     2     4    1
     4     2     7    1
     5     2     8    1
     6     3     5    1
     7     3     9    1
     8     3    17    1
     9     4     6    1
    10     4    10    1
    11     4    18    1
    12     5     6    1
    13     5    19    1
    14     5    20    1
    15     6    21    1
    16     6    22    1
    17     7    11    1
    18     7    23    1
    19     7    24    1
    20     8    12    1
    21     8    25    1
    22     8    26    1
    23     9    13    1
    24     9    14    1
    25     9    27    1
    26    10    28    1
    27    10    29    1
    28    10    30    1
    29    11    15    1
    30    12    15    2
    31    12    31    1
    32    13    32    1
    33    13    33    1
    34    13    34    1
    35    14    35    1
    36    14    36    1
    37    14    37    1
    38    15    16    1
    39    16    38    1
    40    16    39    1
    41    16    40    1
