@<TRIPOS>MOLECULE
IMPHY005090
 56 58 0 0 0
SMALL
GASTEIGER

@<TRIPOS>ATOM
      1 O           5.4220    2.3182    0.0000 O.3     1  UNL1       -0.3429
      2 O           5.5220    0.1754    0.0000 O.3     1  UNL1       -0.4518
      3 O           2.9239   -0.3246    0.0000 O.3     1  UNL1       -0.4579
      4 O           6.9662   -0.9121    0.0000 O.2     1  UNL1       -0.2505
      5 O           3.5241   -3.0259    0.0000 O.3     1  UNL1       -0.3774
      6 O           2.0000   -1.7072    0.0000 O.2     1  UNL1       -0.2476
      7 N           4.8651    2.6473    0.0000 N.4     1  UNL1        0.2738
      8 C           4.6559    1.6754    0.0000 C.3     1  UNL1        0.1582
      9 C           5.5220    1.1754    0.0000 C.3     1  UNL1        0.1831
     10 C           5.8539    2.7503    0.0000 C.3     1  UNL1       -0.0229
     11 C           6.2590    1.8425    0.0000 C.3     1  UNL1        0.0334
     12 C           5.3695    1.7744    0.0000 C.3     1  UNL1       -0.0074
     13 C           3.7899    1.1754    0.0000 C.2     1  UNL1        0.0510
     14 C           4.1973    3.3916    0.0000 C.3     1  UNL1       -0.0376
     15 C           4.7748    0.9603    0.0000 C.2     1  UNL1       -0.0286
     16 C           3.7899    0.1754    0.0000 C.3     1  UNL1        0.1218
     17 C           5.1310   -1.1656    0.0000 C.3     1  UNL1        0.0644
     18 C           5.9970   -0.6656    0.0000 C.2     1  UNL1        0.3114
     19 C           4.6310   -2.0317    0.0000 C.3     1  UNL1        0.0084
     20 C           3.6310   -2.0317    0.0000 C.3     1  UNL1        0.1625
     21 C           4.3118   -0.5921    0.0000 C.3     1  UNL1       -0.0334
     22 C           2.9239   -1.3246    0.0000 C.2     1  UNL1        0.3395
     23 C           5.1310   -2.8977    0.0000 C.3     1  UNL1       -0.0585
     24 C           2.7750   -2.5488    0.0000 C.3     1  UNL1       -0.0253
     25 C           3.6047   -1.2991    0.0000 C.3     1  UNL1       -0.0619
     26 C           4.3990    0.4041    0.0000 C.3     1  UNL1       -0.0619
     27 H           6.2989    0.8307    0.0000 H       1  UNL1        0.0828
     28 H           6.4435    2.9421    0.0000 H       1  UNL1        0.0817
     29 H           5.7251    3.3568    0.0000 H       1  UNL1        0.0817
     30 H           6.6244    1.3417    0.0000 H       1  UNL1        0.0356
     31 H           6.7955    2.1533    0.0000 H       1  UNL1        0.0356
     32 H           5.8148    1.3430    0.0000 H       1  UNL1        0.0863
     33 H           5.8583    2.1558    0.0000 H       1  UNL1        0.0863
     34 H           4.6588    3.8056    0.0000 H       1  UNL1        0.0779
     35 H           3.7832    3.8530    0.0000 H       1  UNL1        0.0779
     36 H           3.7358    2.9775    0.0000 H       1  UNL1        0.0779
     37 H           4.9946    0.3806    0.0000 H       1  UNL1        0.0628
     38 H           5.3143    2.9288    0.0000 H       1  UNL1        0.2162
     39 H           4.0020   -0.4072    0.0000 H       1  UNL1        0.0748
     40 H           4.4005    0.2831    0.0000 H       1  UNL1        0.0748
     41 H           5.1580   -0.5462    0.0000 H       1  UNL1        0.0420
     42 H           5.2510   -2.0317    0.0000 H       1  UNL1        0.0339
     43 H           3.7499   -0.3300    0.0000 H       1  UNL1        0.0303
     44 H           4.5940   -3.2077    0.0000 H       1  UNL1        0.0234
     45 H           5.4410   -3.4346    0.0000 H       1  UNL1        0.0234
     46 H           5.6679   -2.5877    0.0000 H       1  UNL1        0.0234
     47 H           2.4545   -2.0181    0.0000 H       1  UNL1        0.0263
     48 H           2.2444   -2.8694    0.0000 H       1  UNL1        0.0263
     49 H           3.0956   -3.0794    0.0000 H       1  UNL1        0.0263
     50 H           3.1663   -0.8607    0.0000 H       1  UNL1        0.0233
     51 H           3.1663   -1.7375    0.0000 H       1  UNL1        0.0233
     52 H           4.0431   -1.7376    0.0000 H       1  UNL1        0.0233
     53 H           5.0166    0.3501    0.0000 H       1  UNL1        0.0233
     54 H           4.4530    1.0218    0.0000 H       1  UNL1        0.0233
     55 H           3.7814    0.4582    0.0000 H       1  UNL1        0.0233
     56 H           4.0248   -3.3916    0.0000 H       1  UNL1        0.2109
@<TRIPOS>UNITY_ATOM_ATTR
7 1
charge 1
@<TRIPOS>BOND
     1     8     1    1
     2     1    38    1
     3     2     9    1
     4     2    18    1
     5     3    16    1
     6     3    22    1
     7     4    18    2
     8    20     5    1
     9     5    56    1
    10     6    22    2
    11     7     8    1
    12     7    10    1
    13     7    12    1
    14     7    14    1
    15     8     9    1
    16     8    13    1
    17     9    11    1
    18     9    27    1
    19    10    11    1
    20    10    28    1
    21    10    29    1
    22    11    30    1
    23    11    31    1
    24    12    15    1
    25    12    32    1
    26    12    33    1
    27    13    15    2
    28    13    16    1
    29    14    34    1
    30    14    35    1
    31    14    36    1
    32    15    37    1
    33    16    39    1
    34    16    40    1
    35    17    18    1
    36    17    19    1
    37    17    21    1
    38    17    41    1
    39    19    20    1
    40    19    23    1
    41    19    42    1
    42    20    22    1
    43    20    24    1
    44    21    25    1
    45    21    26    1
    46    21    43    1
    47    23    44    1
    48    23    45    1
    49    23    46    1
    50    24    47    1
    51    24    48    1
    52    24    49    1
    53    25    50    1
    54    25    51    1
    55    25    52    1
    56    26    53    1
    57    26    54    1
    58    26    55    1
