@<TRIPOS>MOLECULE
IMPHY013461
 178 187 0 0 0
SMALL
GASTEIGER

@<TRIPOS>ATOM
      1 O           4.6888    4.1921    0.0000 O.3     1  UNL1       -0.3450
      2 O           2.8574    3.4839    0.0000 O.3     1  UNL1       -0.3642
      3 O          11.1168   -1.1624    0.0000 O.3     1  UNL1       -0.3454
      4 O          10.2508   -2.6624    0.0000 O.3     1  UNL1       -0.3405
      5 O           3.3220    8.0233    0.0000 O.3     1  UNL1       -0.3484
      6 O          12.8489   -2.1624    0.0000 O.3     1  UNL1       -0.3841
      7 O          12.8489   -4.1624    0.0000 O.3     1  UNL1       -0.3864
      8 O          11.1168   -5.1624    0.0000 O.3     1  UNL1       -0.3401
      9 O           8.5188   -3.6624    0.0000 O.3     1  UNL1       -0.3924
     10 O           3.3168    9.7554    0.0000 O.3     1  UNL1       -0.3405
     11 O           9.3848   -5.1624    0.0000 O.3     1  UNL1       -0.3405
     12 O           5.3220    8.0293    0.0000 O.3     1  UNL1       -0.3841
     13 O          11.1168   -7.1624    0.0000 O.3     1  UNL1       -0.3377
     14 O           6.3168    9.7644    0.0000 O.3     1  UNL1       -0.3864
     15 O           5.3116   11.4934    0.0000 O.3     1  UNL1       -0.3865
     16 O           9.3848   -8.1624    0.0000 O.3     1  UNL1       -0.3401
     17 O           7.6527   -7.1624    0.0000 O.3     1  UNL1       -0.3865
     18 O           2.3116   11.4844    0.0000 O.3     1  UNL1       -0.3924
     19 O          11.1169   -8.8944    0.0000 O.3     1  UNL1       -0.3405
     20 O           7.6527   -4.1624    0.0000 O.3     1  UNL1       -0.3924
     21 O           7.6527   -8.1624    0.0000 O.3     1  UNL1       -0.3461
     22 O          13.1168   -7.1624    0.0000 O.3     1  UNL1       -0.3841
     23 O          14.1168   -8.8944    0.0000 O.3     1  UNL1       -0.3864
     24 O           9.3848  -10.1624    0.0000 O.3     1  UNL1       -0.3841
     25 O          13.1169  -10.6264    0.0000 O.3     1  UNL1       -0.3865
     26 O           7.6527  -11.1624    0.0000 O.3     1  UNL1       -0.3864
     27 O           5.9207  -10.1624    0.0000 O.3     1  UNL1       -0.3869
     28 O          11.6169  -11.4925    0.0000 O.3     1  UNL1       -0.3924
     29 C           5.7648    1.9614    0.0000 C.3     1  UNL1       -0.0233
     30 C           6.6289    2.4648    0.0000 C.3     1  UNL1       -0.0298
     31 C           7.4968    1.9681    0.0000 C.3     1  UNL1       -0.0343
     32 C           5.0252    2.6257    0.0000 C.3     1  UNL1       -0.0015
     33 C           7.5007    0.9681    0.0000 C.3     1  UNL1       -0.0323
     34 C           8.3967    0.4369    0.0000 C.3     1  UNL1       -0.0260
     35 C           5.4268    3.5350    0.0000 C.3     1  UNL1        0.0660
     36 C           6.4159    3.4358    0.0000 C.3     1  UNL1       -0.0226
     37 C           5.7687    0.9614    0.0000 C.3     1  UNL1       -0.0467
     38 C           6.6366    0.4648    0.0000 C.3     1  UNL1       -0.0489
     39 C           9.3008    0.9542    0.0000 C.3     1  UNL1       -0.0330
     40 C           4.0424    2.7286    0.0000 C.3     1  UNL1        0.0158
     41 C           8.3887    2.5062    0.0000 C.3     1  UNL1       -0.0494
     42 C           9.2968    1.9958    0.0000 C.3     1  UNL1       -0.0494
     43 C           4.9007    1.4581    0.0000 C.3     1  UNL1       -0.0590
     44 C           3.8349    3.6947    0.0000 C.3     1  UNL1        0.1704
     45 C           8.3758   -0.6479    0.0000 C.3     1  UNL1       -0.0448
     46 C          10.2466    0.4226    0.0000 C.3     1  UNL1       -0.0232
     47 C           7.5288   -0.0598    0.0000 C.3     1  UNL1       -0.0590
     48 C           9.3091   -1.2012    0.0000 C.3     1  UNL1       -0.0260
     49 C          10.2508   -0.6624    0.0000 C.3     1  UNL1        0.0621
     50 C           3.3742    1.9846    0.0000 C.3     1  UNL1       -0.0572
     51 C           3.3323    4.5593    0.0000 C.3     1  UNL1        0.0018
     52 C           3.8297    5.4268    0.0000 C.3     1  UNL1       -0.0435
     53 C           3.3271    6.2913    0.0000 C.3     1  UNL1       -0.0201
     54 C          11.1168   -2.1624    0.0000 C.3     1  UNL1        0.1882
     55 C          11.9829   -2.6624    0.0000 C.3     1  UNL1        0.1341
     56 C           3.8245    7.1588    0.0000 C.3     1  UNL1        0.0533
     57 C           2.3271    6.2883    0.0000 C.3     1  UNL1       -0.0603
     58 C          11.9829   -3.6624    0.0000 C.3     1  UNL1        0.1144
     59 C          10.2508   -3.6624    0.0000 C.3     1  UNL1        0.1134
     60 C          11.1168   -4.1624    0.0000 C.3     1  UNL1        0.1184
     61 C           9.3848   -4.1624    0.0000 C.3     1  UNL1        0.0730
     62 C           3.8194    8.8909    0.0000 C.3     1  UNL1        0.1879
     63 C           4.8194    8.8938    0.0000 C.3     1  UNL1        0.1341
     64 C          10.2508   -5.6624    0.0000 C.3     1  UNL1        0.1888
     65 C           5.3168    9.7614    0.0000 C.3     1  UNL1        0.1141
     66 C          10.2508   -6.6624    0.0000 C.3     1  UNL1        0.1410
     67 C           3.8142   10.6229    0.0000 C.3     1  UNL1        0.1130
     68 C           4.8142   10.6259    0.0000 C.3     1  UNL1        0.1119
     69 C           9.3848   -7.1624    0.0000 C.3     1  UNL1        0.1209
     70 C           8.5188   -5.6624    0.0000 C.3     1  UNL1        0.1130
     71 C           8.5188   -6.6624    0.0000 C.3     1  UNL1        0.1123
     72 C           3.3116   11.4874    0.0000 C.3     1  UNL1        0.0730
     73 C           7.6527   -5.1624    0.0000 C.3     1  UNL1        0.0730
     74 C          11.6169   -8.0283    0.0000 C.3     1  UNL1        0.1885
     75 C           8.5188   -8.6624    0.0000 C.3     1  UNL1        0.1880
     76 C          12.6168   -8.0284    0.0000 C.3     1  UNL1        0.1341
     77 C          13.1168   -8.8944    0.0000 C.3     1  UNL1        0.1141
     78 C           8.5188   -9.6624    0.0000 C.3     1  UNL1        0.1341
     79 C          11.6169   -9.7604    0.0000 C.3     1  UNL1        0.1130
     80 C          12.6169   -9.7604    0.0000 C.3     1  UNL1        0.1119
     81 C           7.6527  -10.1624    0.0000 C.3     1  UNL1        0.1137
     82 C           6.7867   -8.6624    0.0000 C.3     1  UNL1        0.0792
     83 C           6.7867   -9.6624    0.0000 C.3     1  UNL1        0.1069
     84 C          11.1169  -10.6265    0.0000 C.3     1  UNL1        0.0730
     85 H           7.3140    2.9679    0.0000 H       1  UNL1        0.0310
     86 H           7.4870    2.8180    0.0000 H       1  UNL1        0.0306
     87 H           4.6801    1.8489    0.0000 H       1  UNL1        0.0335
     88 H           8.2385    1.3903    0.0000 H       1  UNL1        0.0309
     89 H           5.7686    4.3133    0.0000 H       1  UNL1        0.0600
     90 H           7.0322    3.5042    0.0000 H       1  UNL1        0.0293
     91 H           6.4127    4.0558    0.0000 H       1  UNL1        0.0293
     92 H           5.1577    1.0667    0.0000 H       1  UNL1        0.0271
     93 H           5.5589    0.3780    0.0000 H       1  UNL1        0.0271
     94 H           6.2399   -0.0117    0.0000 H       1  UNL1        0.0268
     95 H           7.0370   -0.0086    0.0000 H       1  UNL1        0.0268
     96 H          10.0336    1.3849    0.0000 H       1  UNL1        0.0307
     97 H           3.4433    2.8880    0.0000 H       1  UNL1        0.0354
     98 H           8.7805    2.9867    0.0000 H       1  UNL1        0.0268
     99 H           7.9823    2.9744    0.0000 H       1  UNL1        0.0268
    100 H           9.9080    1.8921    0.0000 H       1  UNL1        0.0268
    101 H           9.5036    2.5804    0.0000 H       1  UNL1        0.0268
    102 H           4.5886    1.9938    0.0000 H       1  UNL1        0.0235
    103 H           4.3650    1.1460    0.0000 H       1  UNL1        0.0235
    104 H           5.2128    0.9224    0.0000 H       1  UNL1        0.0235
    105 H           7.7671   -0.5301    0.0000 H       1  UNL1        0.0271
    106 H           8.1555   -1.2274    0.0000 H       1  UNL1        0.0271
    107 H          10.8579    0.3189    0.0000 H       1  UNL1        0.0293
    108 H          10.4534    1.0071    0.0000 H       1  UNL1        0.0293
    109 H           7.2208    0.4784    0.0000 H       1  UNL1        0.0235
    110 H           6.9906   -0.3677    0.0000 H       1  UNL1        0.0235
    111 H           7.8367   -0.5979    0.0000 H       1  UNL1        0.0235
    112 H           8.9063   -1.6726    0.0000 H       1  UNL1        0.0290
    113 H           9.7046   -1.6787    0.0000 H       1  UNL1        0.0290
    114 H          10.7871   -0.3513    0.0000 H       1  UNL1        0.0597
    115 H           2.9129    2.3989    0.0000 H       1  UNL1        0.0234
    116 H           2.9599    1.5233    0.0000 H       1  UNL1        0.0234
    117 H           3.8355    1.5703    0.0000 H       1  UNL1        0.0234
    118 H           2.8562    4.9564    0.0000 H       1  UNL1        0.0317
    119 H           2.8586    4.1593    0.0000 H       1  UNL1        0.0317
    120 H           2.4411    3.9434    0.0000 H       1  UNL1        0.2128
    121 H           4.3059    5.0297    0.0000 H       1  UNL1        0.0270
    122 H           4.3035    5.8267    0.0000 H       1  UNL1        0.0270
    123 H           3.0155    6.8273    0.0000 H       1  UNL1        0.0320
    124 H          10.5799   -1.8524    0.0000 H       1  UNL1        0.0937
    125 H          12.5198   -2.9724    0.0000 H       1  UNL1        0.0671
    126 H           4.3007    6.7617    0.0000 H       1  UNL1        0.0563
    127 H           4.2983    7.5588    0.0000 H       1  UNL1        0.0563
    128 H           2.3253    6.9083    0.0000 H       1  UNL1        0.0233
    129 H           1.7071    6.2865    0.0000 H       1  UNL1        0.0233
    130 H           2.3290    5.6683    0.0000 H       1  UNL1        0.0233
    131 H          11.9829   -4.2824    0.0000 H       1  UNL1        0.0648
    132 H           9.7139   -3.3524    0.0000 H       1  UNL1        0.0647
    133 H          10.5799   -4.4723    0.0000 H       1  UNL1        0.0651
    134 H          12.8489   -1.5424    0.0000 H       1  UNL1        0.2101
    135 H           8.9862   -4.6373    0.0000 H       1  UNL1        0.0584
    136 H           9.7833   -4.6373    0.0000 H       1  UNL1        0.0584
    137 H          13.3858   -3.8524    0.0000 H       1  UNL1        0.2100
    138 H           4.1310    8.3549    0.0000 H       1  UNL1        0.0937
    139 H           5.4394    8.8957    0.0000 H       1  UNL1        0.0671
    140 H          10.7877   -5.9723    0.0000 H       1  UNL1        0.0938
    141 H           8.5188   -3.0424    0.0000 H       1  UNL1        0.2095
    142 H           5.6252   10.2992    0.0000 H       1  UNL1        0.0648
    143 H          10.2508   -7.2824    0.0000 H       1  UNL1        0.0675
    144 H           3.1942   10.6210    0.0000 H       1  UNL1        0.0647
    145 H           4.5026   11.1619    0.0000 H       1  UNL1        0.0647
    146 H           8.8478   -7.4724    0.0000 H       1  UNL1        0.0651
    147 H           5.9419    8.0312    0.0000 H       1  UNL1        0.2101
    148 H           8.5188   -5.0424    0.0000 H       1  UNL1        0.0647
    149 H           7.9818   -6.3524    0.0000 H       1  UNL1        0.0647
    150 H           3.8936   11.7012    0.0000 H       1  UNL1        0.0584
    151 H           3.2021   12.0977    0.0000 H       1  UNL1        0.0584
    152 H           6.6252   10.3022    0.0000 H       1  UNL1        0.2100
    153 H           5.0000   12.0294    0.0000 H       1  UNL1        0.2100
    154 H           7.0421   -5.0547    0.0000 H       1  UNL1        0.0584
    155 H           7.4407   -5.7450    0.0000 H       1  UNL1        0.0584
    156 H          11.9269   -7.4914    0.0000 H       1  UNL1        0.0938
    157 H           7.1158   -6.8524    0.0000 H       1  UNL1        0.2100
    158 H           2.0000   12.0204    0.0000 H       1  UNL1        0.2095
    159 H           9.0557   -8.9724    0.0000 H       1  UNL1        0.0937
    160 H          13.2368   -8.0284    0.0000 H       1  UNL1        0.0671
    161 H           7.1158   -3.8524    0.0000 H       1  UNL1        0.2095
    162 H          13.4268   -9.4313    0.0000 H       1  UNL1        0.0648
    163 H           8.5188  -10.2824    0.0000 H       1  UNL1        0.0671
    164 H          10.9969   -9.7604    0.0000 H       1  UNL1        0.0647
    165 H          13.2369   -9.7604    0.0000 H       1  UNL1        0.0647
    166 H           7.1158  -10.4724    0.0000 H       1  UNL1        0.0647
    167 H          13.7368   -7.1624    0.0000 H       1  UNL1        0.2101
    168 H           6.5746   -8.0797    0.0000 H       1  UNL1        0.0587
    169 H           6.1761   -8.7700    0.0000 H       1  UNL1        0.0587
    170 H           6.2498   -9.3524    0.0000 H       1  UNL1        0.0643
    171 H          10.6419  -10.2279    0.0000 H       1  UNL1        0.0584
    172 H          10.6419  -11.0250    0.0000 H       1  UNL1        0.0584
    173 H          14.4268   -8.3575    0.0000 H       1  UNL1        0.2100
    174 H           9.3848  -10.7824    0.0000 H       1  UNL1        0.2101
    175 H          13.7368  -10.6265    0.0000 H       1  UNL1        0.2100
    176 H           7.1158  -11.4724    0.0000 H       1  UNL1        0.2100
    177 H           5.3837   -9.8524    0.0000 H       1  UNL1        0.2100
    178 H          11.3069  -12.0294    0.0000 H       1  UNL1        0.2095
@<TRIPOS>BOND
     1     1    35    1
     2     1    44    1
     3    44     2    1
     4     2   120    1
     5    49     3    1
     6    54     3    1
     7     4    54    1
     8     4    59    1
     9     5    56    1
    10    62     5    1
    11    55     6    1
    12     6   134    1
    13    58     7    1
    14     7   137    1
    15    60     8    1
    16    64     8    1
    17     9    61    1
    18     9   141    1
    19    10    62    1
    20    10    67    1
    21    11    64    1
    22    11    70    1
    23    63    12    1
    24    12   147    1
    25    66    13    1
    26    74    13    1
    27    65    14    1
    28    14   152    1
    29    68    15    1
    30    15   153    1
    31    69    16    1
    32    75    16    1
    33    71    17    1
    34    17   157    1
    35    18    72    1
    36    18   158    1
    37    19    74    1
    38    19    79    1
    39    20    73    1
    40    20   161    1
    41    21    75    1
    42    21    82    1
    43    76    22    1
    44    22   167    1
    45    77    23    1
    46    23   173    1
    47    78    24    1
    48    24   174    1
    49    80    25    1
    50    25   175    1
    51    81    26    1
    52    26   176    1
    53    83    27    1
    54    27   177    1
    55    28    84    1
    56    28   178    1
    57    29    30    1
    58    29    32    1
    59    29    37    1
    60    29    43    1
    61    30    31    1
    62    30    36    1
    63    30    85    1
    64    31    33    1
    65    31    41    1
    66    31    86    1
    67    32    35    1
    68    32    40    1
    69    32    87    1
    70    33    34    1
    71    33    38    1
    72    33    88    1
    73    34    39    1
    74    34    45    1
    75    34    47    1
    76    35    36    1
    77    35    89    1
    78    36    90    1
    79    36    91    1
    80    37    38    1
    81    37    92    1
    82    37    93    1
    83    38    94    1
    84    38    95    1
    85    39    42    1
    86    39    46    1
    87    39    96    1
    88    40    44    1
    89    40    50    1
    90    40    97    1
    91    41    42    1
    92    41    98    1
    93    41    99    1
    94    42   100    1
    95    42   101    1
    96    43   102    1
    97    43   103    1
    98    43   104    1
    99    44    51    1
   100    45    48    1
   101    45   105    1
   102    45   106    1
   103    46    49    1
   104    46   107    1
   105    46   108    1
   106    47   109    1
   107    47   110    1
   108    47   111    1
   109    48    49    1
   110    48   112    1
   111    48   113    1
   112    49   114    1
   113    50   115    1
   114    50   116    1
   115    50   117    1
   116    51    52    1
   117    51   118    1
   118    51   119    1
   119    52    53    1
   120    52   121    1
   121    52   122    1
   122    53    56    1
   123    53    57    1
   124    53   123    1
   125    54    55    1
   126    54   124    1
   127    55    58    1
   128    55   125    1
   129    56   126    1
   130    56   127    1
   131    57   128    1
   132    57   129    1
   133    57   130    1
   134    58    60    1
   135    58   131    1
   136    59    60    1
   137    59    61    1
   138    59   132    1
   139    60   133    1
   140    61   135    1
   141    61   136    1
   142    62    63    1
   143    62   138    1
   144    63    65    1
   145    63   139    1
   146    64    66    1
   147    64   140    1
   148    65    68    1
   149    65   142    1
   150    66    69    1
   151    66   143    1
   152    67    68    1
   153    67    72    1
   154    67   144    1
   155    68   145    1
   156    69    71    1
   157    69   146    1
   158    70    71    1
   159    70    73    1
   160    70   148    1
   161    71   149    1
   162    72   150    1
   163    72   151    1
   164    73   154    1
   165    73   155    1
   166    74    76    1
   167    74   156    1
   168    75    78    1
   169    75   159    1
   170    76    77    1
   171    76   160    1
   172    77    80    1
   173    77   162    1
   174    78    81    1
   175    78   163    1
   176    79    80    1
   177    79    84    1
   178    79   164    1
   179    80   165    1
   180    81    83    1
   181    81   166    1
   182    82    83    1
   183    82   168    1
   184    82   169    1
   185    83   170    1
   186    84   171    1
   187    84   172    1
