@<TRIPOS>MOLECULE
IMPHY004580
 31 34 0 0 0
SMALL
GASTEIGER

@<TRIPOS>ATOM
      1 O          10.4786   -0.0374    0.0000 O.3     1  UNL1       -0.4526
      2 O           6.0682   -1.7327    0.0000 O.2     1  UNL1       -0.4620
      3 O          10.4786    1.5721    0.0000 O.3     1  UNL1       -0.4526
      4 O           6.0682    1.2673    0.0000 O.2     1  UNL1       -0.2864
      5 O           2.5381   -1.7568    0.0000 O.3     1  UNL1       -0.5066
      6 C           7.8003    0.2673    0.0000 C.ar    1  UNL1       -0.0076
      7 C           6.9343   -0.2327    0.0000 C.ar    1  UNL1        0.0644
      8 C           5.2022   -0.2327    0.0000 C.ar    1  UNL1        0.0648
      9 C           9.5323    0.2673    0.0000 C.ar    1  UNL1        0.1668
     10 C           8.6663   -0.2327    0.0000 C.ar    1  UNL1       -0.0082
     11 C           6.0682    0.2673    0.0000 C.ar    1  UNL1        0.2001
     12 C           9.5323    1.2673    0.0000 C.ar    1  UNL1        0.1663
     13 C           5.2022   -1.2327    0.0000 C.ar    1  UNL1        0.1419
     14 C           7.8003    1.2673    0.0000 C.ar    1  UNL1       -0.0501
     15 C           8.6663    1.7673    0.0000 C.ar    1  UNL1       -0.0156
     16 C           6.9343   -1.2327    0.0000 C.ar    1  UNL1        0.1038
     17 C           4.3083    0.3020    0.0000 C.ar    1  UNL1       -0.0439
     18 C          11.0622    0.7673    0.0000 C.3     1  UNL1        0.2332
     19 C           4.3083   -1.7673    0.0000 C.ar    1  UNL1        0.0228
     20 C           3.4022   -0.2119    0.0000 C.ar    1  UNL1       -0.0193
     21 C           3.4022   -1.2535    0.0000 C.ar    1  UNL1        0.1204
     22 H           8.6663   -0.8527    0.0000 H       1  UNL1        0.0661
     23 H           7.2634    1.5773    0.0000 H       1  UNL1        0.0625
     24 H           8.6663    2.3873    0.0000 H       1  UNL1        0.0655
     25 H           7.4712   -1.5427    0.0000 H       1  UNL1        0.1037
     26 H           4.3154    0.9220    0.0000 H       1  UNL1        0.0627
     27 H          11.5231    0.3526    0.0000 H       1  UNL1        0.1166
     28 H          11.5231    1.1821    0.0000 H       1  UNL1        0.1166
     29 H           4.3154   -2.3873    0.0000 H       1  UNL1        0.0691
     30 H           2.8665    0.1002    0.0000 H       1  UNL1        0.0654
     31 H           2.0000   -1.4489    0.0000 H       1  UNL1        0.2921
@<TRIPOS>BOND
     1     1     9    1
     2     1    18    1
     3     2    13   ar
     4     2    16   ar
     5     3    12    1
     6     3    18    1
     7     4    11    2
     8     5    21    1
     9     5    31    1
    10     6     7    1
    11     6    10   ar
    12     6    14   ar
    13     7    11   ar
    14     7    16   ar
    15     8    11   ar
    16     8    13   ar
    17     8    17   ar
    18     9    10   ar
    19     9    12   ar
    20    10    22    1
    21    12    15   ar
    22    13    19   ar
    23    14    15   ar
    24    14    23    1
    25    15    24    1
    26    16    25    1
    27    17    20   ar
    28    17    26    1
    29    18    27    1
    30    18    28    1
    31    19    21   ar
    32    19    29    1
    33    20    21   ar
    34    20    30    1
