@<TRIPOS>MOLECULE
IMPHY006885
 80 84 0 0 0
SMALL
GASTEIGER

@<TRIPOS>ATOM
      1 O           3.3248    1.1755    0.0000 O.3     1  UNL1       -0.3880
      2 O          10.9848    3.3871    0.0000 O.2     1  UNL1       -0.2968
      3 O           3.8493   -2.7990    0.0000 O.3     1  UNL1       -0.4802
      4 O           5.5813   -2.8124    0.0000 O.2     1  UNL1       -0.2504
      5 C           7.3770    0.2427    0.0000 C.3     1  UNL1       -0.0194
      6 C           7.3770    1.2427    0.0000 C.3     1  UNL1       -0.0257
      7 C           6.5109   -0.2573    0.0000 C.3     1  UNL1       -0.0050
      8 C           8.2709    1.7774    0.0000 C.3     1  UNL1       -0.0243
      9 C           9.1770    1.2635    0.0000 C.3     1  UNL1       -0.0235
     10 C           8.2709   -0.2920    0.0000 C.3     1  UNL1       -0.0463
     11 C           5.6449    0.2427    0.0000 C.2     1  UNL1       -0.0602
     12 C           4.7349   -0.2641    0.0000 C.3     1  UNL1        0.0252
     13 C           4.7269   -1.3057    0.0000 C.3     1  UNL1        0.0767
     14 C           9.1770    0.2219    0.0000 C.3     1  UNL1       -0.0483
     15 C           6.5270   -1.2988    0.0000 C.3     1  UNL1       -0.0424
     16 C           6.5109    1.7427    0.0000 C.3     1  UNL1       -0.0306
     17 C          10.1208    1.7988    0.0000 C.3     1  UNL1        0.0267
     18 C           8.2458    2.8621    0.0000 C.3     1  UNL1       -0.0404
     19 C           5.6290   -1.8266    0.0000 C.3     1  UNL1       -0.0358
     20 C           7.7191   -0.6969    0.0000 C.3     1  UNL1       -0.0585
     21 C           3.8081    0.2999    0.0000 C.3     1  UNL1        0.0733
     22 C           5.6449    1.2427    0.0000 C.2     1  UNL1       -0.0835
     23 C           7.1537   -1.0233    0.0000 C.3     1  UNL1       -0.0553
     24 C           7.4010    2.2707    0.0000 C.3     1  UNL1       -0.0590
     25 C           3.7914   -1.8555    0.0000 C.3     1  UNL1       -0.0363
     26 C           2.8602   -0.2280    0.0000 C.3     1  UNL1       -0.0146
     27 C           9.1770    3.4190    0.0000 C.3     1  UNL1        0.0069
     28 C          10.1208    2.8838    0.0000 C.2     1  UNL1        0.1392
     29 C           2.8518   -1.3130    0.0000 C.3     1  UNL1       -0.0468
     30 C           4.7192   -2.3057    0.0000 C.2     1  UNL1        0.3116
     31 C          11.1207    1.7949    0.0000 C.3     1  UNL1       -0.0528
     32 C          10.6174    0.9308    0.0000 C.3     1  UNL1       -0.0528
     33 C           4.3247    1.1562    0.0000 C.3     1  UNL1       -0.0352
     34 C           2.0000    0.2820    0.0000 C.3     1  UNL1       -0.0598
     35 H           8.1163    0.8234    0.0000 H       1  UNL1        0.0315
     36 H           9.9114    0.8357    0.0000 H       1  UNL1        0.0315
     37 H           7.8663   -0.7617    0.0000 H       1  UNL1        0.0271
     38 H           8.6645   -0.7710    0.0000 H       1  UNL1        0.0271
     39 H           4.7513    0.5857    0.0000 H       1  UNL1        0.0384
     40 H           9.3860   -0.3618    0.0000 H       1  UNL1        0.0269
     41 H           9.7878    0.3280    0.0000 H       1  UNL1        0.0269
     42 H           6.7450   -1.8792    0.0000 H       1  UNL1        0.0274
     43 H           7.1361   -1.1833    0.0000 H       1  UNL1        0.0274
     44 H           6.9095    2.2177    0.0000 H       1  UNL1        0.0310
     45 H           6.1124    2.2177    0.0000 H       1  UNL1        0.0310
     46 H           8.0233    3.4408    0.0000 H       1  UNL1        0.0275
     47 H           7.6376    2.7419    0.0000 H       1  UNL1        0.0275
     48 H           5.2316   -2.3025    0.0000 H       1  UNL1        0.0276
     49 H           6.0299   -2.2994    0.0000 H       1  UNL1        0.0276
     50 H           7.1365   -0.9091    0.0000 H       1  UNL1        0.0235
     51 H           7.9312   -1.2795    0.0000 H       1  UNL1        0.0235
     52 H           8.3017   -0.4848    0.0000 H       1  UNL1        0.0235
     53 H           5.1080    1.5527    0.0000 H       1  UNL1        0.0572
     54 H           6.6788   -1.4219    0.0000 H       1  UNL1        0.0238
     55 H           7.5522   -1.4983    0.0000 H       1  UNL1        0.0238
     56 H           7.6287   -0.6248    0.0000 H       1  UNL1        0.0238
     57 H           7.7069    2.8100    0.0000 H       1  UNL1        0.0235
     58 H           6.8617    2.5765    0.0000 H       1  UNL1        0.0235
     59 H           7.0952    1.7314    0.0000 H       1  UNL1        0.0235
     60 H           3.3942   -2.3314    0.0000 H       1  UNL1        0.0276
     61 H           4.1924   -2.3284    0.0000 H       1  UNL1        0.0276
     62 H           2.8686    0.3919    0.0000 H       1  UNL1        0.0326
     63 H           9.5706    3.8980    0.0000 H       1  UNL1        0.0342
     64 H           8.7724    3.8888    0.0000 H       1  UNL1        0.0342
     65 H           2.2418   -1.2022    0.0000 H       1  UNL1        0.0269
     66 H           2.6383   -1.8950    0.0000 H       1  UNL1        0.0269
     67 H          11.1184    1.1749    0.0000 H       1  UNL1        0.0239
     68 H          11.7407    1.7925    0.0000 H       1  UNL1        0.0239
     69 H          11.1231    2.4149    0.0000 H       1  UNL1        0.0239
     70 H          10.0793    0.6229    0.0000 H       1  UNL1        0.0239
     71 H          10.9253    0.3927    0.0000 H       1  UNL1        0.0239
     72 H          11.1555    1.2387    0.0000 H       1  UNL1        0.0239
     73 H           4.8555    0.8359    0.0000 H       1  UNL1        0.0257
     74 H           4.6450    1.6870    0.0000 H       1  UNL1        0.0257
     75 H           3.7938    1.4765    0.0000 H       1  UNL1        0.0257
     76 H           2.3162    0.8153    0.0000 H       1  UNL1        0.0233
     77 H           1.4667    0.5982    0.0000 H       1  UNL1        0.0233
     78 H           1.6838   -0.2513    0.0000 H       1  UNL1        0.0233
     79 H           2.7050    1.1874    0.0000 H       1  UNL1        0.2102
     80 H           3.8445   -3.4190    0.0000 H       1  UNL1        0.2951
@<TRIPOS>BOND
     1    21     1    1
     2     1    79    1
     3     2    28    2
     4     3    30    1
     5     3    80    1
     6     4    30    2
     7     5     6    1
     8     5     7    1
     9     5    10    1
    10     5    20    1
    11     6     8    1
    12     6    16    1
    13     6    35    1
    14     7    11    1
    15     7    15    1
    16     7    23    1
    17     8     9    1
    18     8    18    1
    19     8    24    1
    20     9    14    1
    21     9    17    1
    22     9    36    1
    23    10    14    1
    24    10    37    1
    25    10    38    1
    26    11    12    1
    27    11    22    2
    28    12    13    1
    29    12    21    1
    30    12    39    1
    31    13    19    1
    32    13    25    1
    33    13    30    1
    34    14    40    1
    35    14    41    1
    36    15    19    1
    37    15    42    1
    38    15    43    1
    39    16    22    1
    40    16    44    1
    41    16    45    1
    42    17    28    1
    43    17    31    1
    44    17    32    1
    45    18    27    1
    46    18    46    1
    47    18    47    1
    48    19    48    1
    49    19    49    1
    50    20    50    1
    51    20    51    1
    52    20    52    1
    53    21    26    1
    54    21    33    1
    55    22    53    1
    56    23    54    1
    57    23    55    1
    58    23    56    1
    59    24    57    1
    60    24    58    1
    61    24    59    1
    62    25    29    1
    63    25    60    1
    64    25    61    1
    65    26    29    1
    66    26    34    1
    67    26    62    1
    68    27    28    1
    69    27    63    1
    70    27    64    1
    71    29    65    1
    72    29    66    1
    73    31    67    1
    74    31    68    1
    75    31    69    1
    76    32    70    1
    77    32    71    1
    78    32    72    1
    79    33    73    1
    80    33    74    1
    81    33    75    1
    82    34    76    1
    83    34    77    1
    84    34    78    1
