@<TRIPOS>MOLECULE
IMPHY000841
 80 84 0 0 0
SMALL
GASTEIGER

@<TRIPOS>ATOM
      1 O           2.0000   -3.2456    0.0000 O.2     1  UNL1       -0.2968
      2 O          11.5604    1.6809    0.0000 O.2     1  UNL1       -0.2971
      3 C           5.5301   -1.2214    0.0000 C.3     1  UNL1       -0.0194
      4 C           4.6641   -1.7214    0.0000 C.3     1  UNL1       -0.0187
      5 C           4.6638   -0.7210    0.0000 C.3     1  UNL1       -0.0401
      6 C           6.3961   -1.7214    0.0000 C.3     1  UNL1       -0.0289
      7 C           7.3062   -1.2146    0.0000 C.3     1  UNL1       -0.0231
      8 C           4.6641   -2.7214    0.0000 C.3     1  UNL1       -0.0230
      9 C           5.5141   -0.1799    0.0000 C.3     1  UNL1       -0.0460
     10 C           7.3142   -0.1730    0.0000 C.3     1  UNL1       -0.0233
     11 C           3.7702   -1.1868    0.0000 C.3     1  UNL1       -0.0399
     12 C           6.3961   -2.7214    0.0000 C.3     1  UNL1       -0.0489
     13 C           6.4121    0.3478    0.0000 C.3     1  UNL1       -0.0463
     14 C           5.5301   -3.2214    0.0000 C.3     1  UNL1       -0.0485
     15 C           3.7702   -3.2561    0.0000 C.3     1  UNL1        0.0267
     16 C           8.3022    0.1368    0.0000 C.3     1  UNL1       -0.0325
     17 C           8.2893   -1.5396    0.0000 C.3     1  UNL1       -0.0466
     18 C           8.9036   -0.7061    0.0000 C.3     1  UNL1       -0.0489
     19 C           2.8641   -1.7006    0.0000 C.3     1  UNL1        0.0069
     20 C           7.2984   -2.2146    0.0000 C.3     1  UNL1       -0.0588
     21 C           7.3219    0.8270    0.0000 C.3     1  UNL1       -0.0588
     22 C           2.8641   -2.7423    0.0000 C.2     1  UNL1        0.1392
     23 C           8.6202    1.0849    0.0000 C.3     1  UNL1       -0.0401
     24 C           3.2802   -4.1279    0.0000 C.3     1  UNL1       -0.0528
     25 C           4.2801   -4.1163    0.0000 C.3     1  UNL1       -0.0528
     26 C           9.6003    1.2836    0.0000 C.3     1  UNL1       -0.0435
     27 C           7.9581    1.8343    0.0000 C.3     1  UNL1       -0.0621
     28 C           9.9182    2.2317    0.0000 C.3     1  UNL1        0.0063
     29 C          10.8983    2.4303    0.0000 C.2     1  UNL1        0.1359
     30 C          11.2163    3.3784    0.0000 C.3     1  UNL1        0.0119
     31 C          12.1964    3.5771    0.0000 C.3     1  UNL1       -0.0560
     32 C          10.5542    4.1279    0.0000 C.3     1  UNL1       -0.0560
     33 H           4.8759   -0.1384    0.0000 H       1  UNL1        0.0276
     34 H           4.0532   -0.6134    0.0000 H       1  UNL1        0.0276
     35 H           7.1290   -2.1521    0.0000 H       1  UNL1        0.0312
     36 H           4.6706   -3.5714    0.0000 H       1  UNL1        0.0316
     37 H           5.2960    0.4005    0.0000 H       1  UNL1        0.0271
     38 H           4.9049   -0.2954    0.0000 H       1  UNL1        0.0271
     39 H           4.1748   -0.7170    0.0000 H       1  UNL1        0.0275
     40 H           3.3765   -0.7078    0.0000 H       1  UNL1        0.0275
     41 H           6.6082   -3.3041    0.0000 H       1  UNL1        0.0268
     42 H           7.0067   -2.6138    0.0000 H       1  UNL1        0.0268
     43 H           6.8094    0.8238    0.0000 H       1  UNL1        0.0271
     44 H           6.0111    0.8207    0.0000 H       1  UNL1        0.0271
     45 H           5.1316   -3.6964    0.0000 H       1  UNL1        0.0268
     46 H           5.9286   -3.6964    0.0000 H       1  UNL1        0.0268
     47 H           9.1429    0.2622    0.0000 H       1  UNL1        0.0309
     48 H           8.0339   -2.1046    0.0000 H       1  UNL1        0.0271
     49 H           8.8243   -1.8530    0.0000 H       1  UNL1        0.0271
     50 H           9.3613   -1.1244    0.0000 H       1  UNL1        0.0268
     51 H           9.3677   -0.2949    0.0000 H       1  UNL1        0.0268
     52 H           2.6550   -1.1170    0.0000 H       1  UNL1        0.0342
     53 H           2.2532   -1.8067    0.0000 H       1  UNL1        0.0342
     54 H           6.6785   -2.2098    0.0000 H       1  UNL1        0.0235
     55 H           7.2937   -2.8346    0.0000 H       1  UNL1        0.0235
     56 H           7.9184   -2.2194    0.0000 H       1  UNL1        0.0235
     57 H           7.9419    0.8222    0.0000 H       1  UNL1        0.0235
     58 H           7.3267    1.4470    0.0000 H       1  UNL1        0.0235
     59 H           6.7019    0.8317    0.0000 H       1  UNL1        0.0235
     60 H           8.8173    1.6727    0.0000 H       1  UNL1        0.0301
     61 H           2.7397   -3.8241    0.0000 H       1  UNL1        0.0239
     62 H           2.9764   -4.6684    0.0000 H       1  UNL1        0.0239
     63 H           3.8207   -4.4316    0.0000 H       1  UNL1        0.0239
     64 H           3.7468   -4.4325    0.0000 H       1  UNL1        0.0239
     65 H           4.5963   -4.6496    0.0000 H       1  UNL1        0.0239
     66 H           4.8134   -3.8001    0.0000 H       1  UNL1        0.0239
     67 H           9.6160    0.6638    0.0000 H       1  UNL1        0.0272
     68 H          10.2134    1.1915    0.0000 H       1  UNL1        0.0272
     69 H           8.4228    2.2448    0.0000 H       1  UNL1        0.0233
     70 H           7.5476    2.2990    0.0000 H       1  UNL1        0.0233
     71 H           7.4935    1.4238    0.0000 H       1  UNL1        0.0233
     72 H           9.9024    2.8515    0.0000 H       1  UNL1        0.0342
     73 H           9.3051    2.3238    0.0000 H       1  UNL1        0.0342
     74 H          10.6086    3.2553    0.0000 H       1  UNL1        0.0372
     75 H          12.3195    2.9695    0.0000 H       1  UNL1        0.0236
     76 H          12.8040    3.7003    0.0000 H       1  UNL1        0.0236
     77 H          11.0188    4.5384    0.0000 H       1  UNL1        0.0236
     78 H          10.1437    4.5925    0.0000 H       1  UNL1        0.0236
     79 H          10.0896    3.7174    0.0000 H       1  UNL1        0.0236
     80 H          12.0732    4.1848    0.0000 H       1  UNL1        0.0236
@<TRIPOS>BOND
     1     1    22    2
     2     2    29    2
     3     3     4    1
     4     3     5    1
     5     3     6    1
     6     3     9    1
     7     4     5    1
     8     4     8    1
     9     4    11    1
    10     5    33    1
    11     5    34    1
    12     6     7    1
    13     6    12    1
    14     6    35    1
    15     7    10    1
    16     7    17    1
    17     7    20    1
    18     8    14    1
    19     8    15    1
    20     8    36    1
    21     9    13    1
    22     9    37    1
    23     9    38    1
    24    10    13    1
    25    10    16    1
    26    10    21    1
    27    11    19    1
    28    11    39    1
    29    11    40    1
    30    12    14    1
    31    12    41    1
    32    12    42    1
    33    13    43    1
    34    13    44    1
    35    14    45    1
    36    14    46    1
    37    15    22    1
    38    15    24    1
    39    15    25    1
    40    16    18    1
    41    16    23    1
    42    16    47    1
    43    17    18    1
    44    17    48    1
    45    17    49    1
    46    18    50    1
    47    18    51    1
    48    19    22    1
    49    19    52    1
    50    19    53    1
    51    20    54    1
    52    20    55    1
    53    20    56    1
    54    21    57    1
    55    21    58    1
    56    21    59    1
    57    23    26    1
    58    23    27    1
    59    23    60    1
    60    24    61    1
    61    24    62    1
    62    24    63    1
    63    25    64    1
    64    25    65    1
    65    25    66    1
    66    26    28    1
    67    26    67    1
    68    26    68    1
    69    27    69    1
    70    27    70    1
    71    27    71    1
    72    28    29    1
    73    28    72    1
    74    28    73    1
    75    29    30    1
    76    30    31    1
    77    30    32    1
    78    30    74    1
    79    31    75    1
    80    31    76    1
    81    31    80    1
    82    32    77    1
    83    32    78    1
    84    32    79    1
