@<TRIPOS>MOLECULE
IMPHY006503
 63 64 0 0 0
SMALL
GASTEIGER

@<TRIPOS>ATOM
      1 O           4.9344   -0.3857    0.0000 O.3     1  UNL1       -0.4518
      2 O           6.1945   -3.6458    0.0000 O.co2   1  UNL1       -0.7743
      3 O           8.4299   -0.1843    0.0000 O.3     1  UNL1       -0.4579
      4 O           9.9253   -0.0061    0.0000 O.3     1  UNL1       -0.3734
      5 O           3.2872   -0.9209    0.0000 O.2     1  UNL1       -0.2453
      6 O          11.6761    1.3849    0.0000 O.3     1  UNL1       -0.3856
      7 O           9.8235    2.9015    0.0000 O.3     1  UNL1       -0.3765
      8 O           8.0727    1.5105    0.0000 O.2     1  UNL1       -0.2474
      9 N           6.1945   -2.6458    0.0000 N.3     1  UNL1        0.2280
     10 C           6.1945   -1.6458    0.0000 C.3     1  UNL1        0.0418
     11 C           5.2435   -1.3368    0.0000 C.3     1  UNL1        0.1543
     12 C           5.2435   -2.9548    0.0000 C.3     1  UNL1       -0.0280
     13 C           4.6557   -2.1458    0.0000 C.3     1  UNL1        0.0303
     14 C           7.1407   -2.9505    0.0000 C.3     1  UNL1       -0.0125
     15 C           7.1407   -1.3410    0.0000 C.2     1  UNL1        0.0194
     16 C           7.7244   -2.1458    0.0000 C.2     1  UNL1       -0.0317
     17 C           7.4514   -0.3905    0.0000 C.3     1  UNL1        0.1191
     18 C           3.9563   -0.1778    0.0000 C.2     1  UNL1        0.3350
     19 C           9.7191    0.9724    0.0000 C.3     1  UNL1        0.2164
     20 C           8.7406    0.7662    0.0000 C.2     1  UNL1        0.3450
     21 C          10.6976    1.1787    0.0000 C.3     1  UNL1        0.1020
     22 C           9.5128    1.9510    0.0000 C.3     1  UNL1        0.0974
     23 C           3.6473    0.7733    0.0000 C.2     1  UNL1        0.0294
     24 C          11.0082    2.1292    0.0000 C.3     1  UNL1       -0.0330
     25 C          10.9038    0.2002    0.0000 C.3     1  UNL1       -0.0330
     26 C           8.5623    2.2616    0.0000 C.3     1  UNL1       -0.0353
     27 C           4.3164    1.5164    0.0000 C.3     1  UNL1       -0.0333
     28 C           2.6691    0.9812    0.0000 C.2     1  UNL1       -0.0774
     29 C           9.1557    3.6458    0.0000 C.3     1  UNL1        0.0369
     30 C           2.0000    0.2380    0.0000 C.3     1  UNL1       -0.0461
     31 H           6.1956   -0.7958    0.0000 H       1  UNL1        0.0938
     32 H           4.6311   -1.2398    0.0000 H       1  UNL1        0.0797
     33 H           4.7065   -3.2648    0.0000 H       1  UNL1        0.0815
     34 H           5.4956   -3.5212    0.0000 H       1  UNL1        0.0815
     35 H           4.1949   -1.7309    0.0000 H       1  UNL1        0.0355
     36 H           4.1949   -2.5606    0.0000 H       1  UNL1        0.0355
     37 H           6.8897   -3.5174    0.0000 H       1  UNL1        0.0861
     38 H           7.6781   -3.2597    0.0000 H       1  UNL1        0.0861
     39 H           8.3444   -2.1458    0.0000 H       1  UNL1        0.0627
     40 H           7.4308    0.2291    0.0000 H       1  UNL1        0.0747
     41 H           6.8376   -0.3032    0.0000 H       1  UNL1        0.0747
     42 H          10.1319    1.9174    0.0000 H       1  UNL1        0.0628
     43 H          11.5976    1.9366    0.0000 H       1  UNL1        0.0258
     44 H          11.2009    2.7185    0.0000 H       1  UNL1        0.0258
     45 H          10.4189    2.3218    0.0000 H       1  UNL1        0.0258
     46 H          10.2971    0.0723    0.0000 H       1  UNL1        0.0258
     47 H          11.0317   -0.4065    0.0000 H       1  UNL1        0.0258
     48 H          11.5105    0.3280    0.0000 H       1  UNL1        0.0258
     49 H           8.7549    2.8509    0.0000 H       1  UNL1        0.0256
     50 H           7.9730    2.4542    0.0000 H       1  UNL1        0.0256
     51 H           8.3697    1.6723    0.0000 H       1  UNL1        0.0256
     52 H           9.4638   -0.4201    0.0000 H       1  UNL1        0.2111
     53 H          12.0901    0.9234    0.0000 H       1  UNL1        0.2103
     54 H           4.7772    1.1016    0.0000 H       1  UNL1        0.0280
     55 H           4.7313    1.9772    0.0000 H       1  UNL1        0.0280
     56 H           3.8557    1.9313    0.0000 H       1  UNL1        0.0280
     57 H           2.4775    1.5708    0.0000 H       1  UNL1        0.0574
     58 H           9.6171    4.0598    0.0000 H       1  UNL1        0.0524
     59 H           8.7416    4.1072    0.0000 H       1  UNL1        0.0524
     60 H           8.6942    3.2317    0.0000 H       1  UNL1        0.0524
     61 H           1.5392    0.6529    0.0000 H       1  UNL1        0.0272
     62 H           1.5851   -0.2227    0.0000 H       1  UNL1        0.0272
     63 H           2.4608   -0.1768    0.0000 H       1  UNL1        0.0272
@<TRIPOS>UNITY_ATOM_ATTR
2 1
charge -1
9 1
charge 1
@<TRIPOS>BOND
     1    11     1    1
     2     1    18    1
     3     2     9    1
     4     3    17    1
     5     3    20    1
     6    19     4    1
     7     4    52    1
     8     5    18    2
     9     6    21    1
    10     6    53    1
    11    22     7    1
    12     7    29    1
    13     8    20    2
    14     9    10    1
    15     9    12    1
    16     9    14    1
    17    10    11    1
    18    10    15    1
    19    10    31    1
    20    11    13    1
    21    11    32    1
    22    12    13    1
    23    12    33    1
    24    12    34    1
    25    13    35    1
    26    13    36    1
    27    14    16    1
    28    14    37    1
    29    14    38    1
    30    15    16    2
    31    15    17    1
    32    16    39    1
    33    17    40    1
    34    17    41    1
    35    18    23    1
    36    19    20    1
    37    19    21    1
    38    19    22    1
    39    21    24    1
    40    21    25    1
    41    22    26    1
    42    22    42    1
    43    23    27    1
    44    23    28    2
    45    24    43    1
    46    24    44    1
    47    24    45    1
    48    25    46    1
    49    25    47    1
    50    25    48    1
    51    26    49    1
    52    26    50    1
    53    26    51    1
    54    27    54    1
    55    27    55    1
    56    27    56    1
    57    28    30    1
    58    28    57    1
    59    29    58    1
    60    29    59    1
    61    29    60    1
    62    30    61    1
    63    30    62    1
    64    30    63    1
