@<TRIPOS>MOLECULE
IMPHY005577
 51 52 0 0 0
SMALL
GASTEIGER

@<TRIPOS>ATOM
      1 O           9.3361   -0.9466    0.0000 O.3     1  UNL1       -0.4532
      2 O           6.0010   -0.7796    0.0000 O.3     1  UNL1       -0.4600
      3 O           9.4310   -2.7204    0.0000 O.2     1  UNL1       -0.2453
      4 O          11.1972    1.2204    0.0000 O.3     1  UNL1       -0.3907
      5 O           5.1350    0.7204    0.0000 O.2     1  UNL1       -0.2505
      6 O           2.5369   -0.7796    0.0000 O.3     1  UNL1       -0.3942
      7 C           7.7331   -0.7796    0.0000 C.3     1  UNL1        0.0683
      8 C           6.8671   -0.2796    0.0000 C.3     1  UNL1        0.1174
      9 C           8.5991   -0.2796    0.0000 C.3     1  UNL1        0.1322
     10 C           6.8671    0.7204    0.0000 C.3     1  UNL1        0.0060
     11 C           7.9423   -1.7514    0.0000 C.2     1  UNL1        0.0400
     12 C           8.5991    0.7204    0.0000 C.2     1  UNL1       -0.0418
     13 C           7.7331    1.2204    0.0000 C.2     1  UNL1       -0.0730
     14 C           8.9310   -1.8544    0.0000 C.2     1  UNL1        0.3357
     15 C           9.4651    1.2204    0.0000 C.2     1  UNL1       -0.0447
     16 C           9.4651    2.2204    0.0000 C.3     1  UNL1       -0.0260
     17 C           8.5991    2.7204    0.0000 C.3     1  UNL1       -0.0308
     18 C           7.7331    2.2204    0.0000 C.2     1  UNL1       -0.0846
     19 C           7.2744   -2.4957    0.0000 C.2     1  UNL1       -0.0882
     20 C           8.9205    0.2241    0.0000 C.3     1  UNL1       -0.0437
     21 C           5.1350   -0.2796    0.0000 C.2     1  UNL1        0.3124
     22 C          10.3312    0.7204    0.0000 C.3     1  UNL1        0.0654
     23 C           4.2690   -0.7796    0.0000 C.3     1  UNL1        0.0766
     24 C           3.4030   -0.2796    0.0000 C.3     1  UNL1        0.0568
     25 C           4.2690   -1.7796    0.0000 C.3     1  UNL1       -0.0501
     26 H           7.0461   -1.2801    0.0000 H       1  UNL1        0.0427
     27 H           6.3301    0.0304    0.0000 H       1  UNL1        0.0744
     28 H           9.3761    0.0652    0.0000 H       1  UNL1        0.0787
     29 H           6.6550    1.3031    0.0000 H       1  UNL1        0.0346
     30 H           6.2565    0.6128    0.0000 H       1  UNL1        0.0346
     31 H           8.3871    1.3031    0.0000 H       1  UNL1        0.0609
     32 H          10.0757    2.1128    0.0000 H       1  UNL1        0.0314
     33 H           9.6772    2.8031    0.0000 H       1  UNL1        0.0314
     34 H           8.9976    3.1954    0.0000 H       1  UNL1        0.0310
     35 H           8.2006    3.1954    0.0000 H       1  UNL1        0.0310
     36 H           7.1962    2.5304    0.0000 H       1  UNL1        0.0572
     37 H           6.6678   -2.3678    0.0000 H       1  UNL1        0.0540
     38 H           7.4671   -3.0850    0.0000 H       1  UNL1        0.0540
     39 H           8.5219   -0.2508    0.0000 H       1  UNL1        0.0274
     40 H           9.3954   -0.1744    0.0000 H       1  UNL1        0.0274
     41 H           9.3190    0.6991    0.0000 H       1  UNL1        0.0274
     42 H           9.9326    0.2455    0.0000 H       1  UNL1        0.0604
     43 H          10.7297    0.2455    0.0000 H       1  UNL1        0.0604
     44 H           4.8059   -1.0896    0.0000 H       1  UNL1        0.0433
     45 H           3.8015    0.1954    0.0000 H       1  UNL1        0.0565
     46 H           3.0044    0.1954    0.0000 H       1  UNL1        0.0565
     47 H           3.6490   -1.7796    0.0000 H       1  UNL1        0.0238
     48 H           4.2690   -2.3996    0.0000 H       1  UNL1        0.0238
     49 H           4.8890   -1.7796    0.0000 H       1  UNL1        0.0238
     50 H          11.7341    0.9104    0.0000 H       1  UNL1        0.2098
     51 H           2.0000   -0.4696    0.0000 H       1  UNL1        0.2094
@<TRIPOS>BOND
     1     1     9    1
     2     1    14    1
     3     8     2    1
     4     2    21    1
     5     3    14    2
     6     4    22    1
     7     4    50    1
     8     5    21    2
     9     6    24    1
    10     6    51    1
    11     7     8    1
    12     7     9    1
    13     7    11    1
    14     7    26    1
    15     8    10    1
    16     8    27    1
    17     9    12    1
    18     9    28    1
    19    10    13    1
    20    10    29    1
    21    10    30    1
    22    11    14    1
    23    11    19    2
    24    12    15    2
    25    12    31    1
    26    13    18    2
    27    13    20    1
    28    15    16    1
    29    15    22    1
    30    16    17    1
    31    16    32    1
    32    16    33    1
    33    17    18    1
    34    17    34    1
    35    17    35    1
    36    18    36    1
    37    19    37    1
    38    19    38    1
    39    20    39    1
    40    20    40    1
    41    20    41    1
    42    21    23    1
    43    22    42    1
    44    22    43    1
    45    23    24    1
    46    23    25    1
    47    23    44    1
    48    24    45    1
    49    24    46    1
    50    25    47    1
    51    25    48    1
    52    25    49    1
