@<TRIPOS>MOLECULE
IMPHY006541
 73 78 0 0 0
SMALL
GASTEIGER

@<TRIPOS>ATOM
      1 O           3.9644    2.0106    0.0000 O.3     1  UNL1       -0.3912
      2 O          10.1703    3.6550    0.0000 O.3     1  UNL1       -0.3915
      3 N           3.7630   -1.7242    0.0000 N.3     1  UNL1       -0.2956
      4 C           4.8304    0.5106    0.0000 C.3     1  UNL1        0.0016
      5 C           4.0934   -0.1565    0.0000 C.3     1  UNL1       -0.0134
      6 C           5.6964    0.0106    0.0000 C.3     1  UNL1       -0.0282
      7 C           4.4985   -1.0643    0.0000 C.3     1  UNL1        0.0147
      8 C           6.5625    0.5106    0.0000 C.3     1  UNL1       -0.0304
      9 C           5.4872   -0.9612    0.0000 C.3     1  UNL1       -0.0333
     10 C           3.1110   -0.2632    0.0000 C.3     1  UNL1       -0.0234
     11 C           6.5625    1.5106    0.0000 C.3     1  UNL1       -0.0262
     12 C           4.8304    1.5106    0.0000 C.3     1  UNL1        0.0615
     13 C           2.9072   -1.2301    0.0000 C.3     1  UNL1        0.0136
     14 C           5.6964    2.0106    0.0000 C.3     1  UNL1       -0.0224
     15 C           7.4564    2.0452    0.0000 C.3     1  UNL1       -0.0077
     16 C           3.9644    1.0106    0.0000 C.3     1  UNL1       -0.0566
     17 C           7.4564   -0.0241    0.0000 C.3     1  UNL1       -0.0311
     18 C           2.0079   -1.7310    0.0000 C.3     1  UNL1       -0.0368
     19 C           3.7789   -2.7534    0.0000 C.3     1  UNL1        0.0020
     20 C           2.4399    0.4782    0.0000 C.3     1  UNL1       -0.0607
     21 C           8.3625    1.5314    0.0000 C.2     1  UNL1       -0.0648
     22 C           2.8914   -3.2750    0.0000 C.3     1  UNL1       -0.0310
     23 C           7.4313    3.1300    0.0000 C.3     1  UNL1       -0.0413
     24 C           2.0000   -2.7603    0.0000 C.3     1  UNL1       -0.0479
     25 C           8.3625    0.4898    0.0000 C.2     1  UNL1       -0.0839
     26 C           6.5866    2.5386    0.0000 C.3     1  UNL1       -0.0556
     27 C           9.3063    2.0666    0.0000 C.3     1  UNL1       -0.0051
     28 C           8.3625    3.6869    0.0000 C.3     1  UNL1       -0.0258
     29 C           9.3063    3.1516    0.0000 C.3     1  UNL1        0.0590
     30 C           2.8953   -4.2750    0.0000 C.3     1  UNL1       -0.0613
     31 H           3.7453    0.6190    0.0000 H       1  UNL1        0.0325
     32 H           6.3834   -0.4899    0.0000 H       1  UNL1        0.0310
     33 H           4.8432   -1.8412    0.0000 H       1  UNL1        0.0466
     34 H           6.5559   -0.3394    0.0000 H       1  UNL1        0.0310
     35 H           5.4863   -1.5812    0.0000 H       1  UNL1        0.0283
     36 H           6.1037   -1.0273    0.0000 H       1  UNL1        0.0283
     37 H           2.5124   -0.4250    0.0000 H       1  UNL1        0.0317
     38 H           7.3018    1.0913    0.0000 H       1  UNL1        0.0313
     39 H           4.8304    2.1306    0.0000 H       1  UNL1        0.0599
     40 H           2.2230   -0.7258    0.0000 H       1  UNL1        0.0465
     41 H           6.0950    2.4855    0.0000 H       1  UNL1        0.0293
     42 H           5.2979    2.4855    0.0000 H       1  UNL1        0.0293
     43 H           4.2744    1.5475    0.0000 H       1  UNL1        0.0236
     44 H           3.4274    1.3206    0.0000 H       1  UNL1        0.0236
     45 H           3.6544    0.4737    0.0000 H       1  UNL1        0.0236
     46 H           7.0518   -0.4939    0.0000 H       1  UNL1        0.0310
     47 H           7.8500   -0.5031    0.0000 H       1  UNL1        0.0310
     48 H           1.8034   -1.1457    0.0000 H       1  UNL1        0.0280
     49 H           1.3963   -1.8324    0.0000 H       1  UNL1        0.0280
     50 H           3.9969   -3.3338    0.0000 H       1  UNL1        0.0429
     51 H           4.3880   -2.6380    0.0000 H       1  UNL1        0.0429
     52 H           2.8996    0.8943    0.0000 H       1  UNL1        0.0233
     53 H           2.0239    0.9379    0.0000 H       1  UNL1        0.0233
     54 H           1.9802    0.0622    0.0000 H       1  UNL1        0.0233
     55 H           2.3551   -3.5860    0.0000 H       1  UNL1        0.0310
     56 H           7.2088    3.7087    0.0000 H       1  UNL1        0.0274
     57 H           6.8231    3.0098    0.0000 H       1  UNL1        0.0274
     58 H           1.3900   -2.6495    0.0000 H       1  UNL1        0.0269
     59 H           1.7864   -3.3424    0.0000 H       1  UNL1        0.0269
     60 H           8.8982    0.1777    0.0000 H       1  UNL1        0.0572
     61 H           6.8924    3.0779    0.0000 H       1  UNL1        0.0238
     62 H           6.0472    2.8444    0.0000 H       1  UNL1        0.0238
     63 H           6.2807    1.9992    0.0000 H       1  UNL1        0.0238
     64 H           3.9644    2.6306    0.0000 H       1  UNL1        0.2098
     65 H           9.5153    1.4830    0.0000 H       1  UNL1        0.0335
     66 H           9.9171    2.1727    0.0000 H       1  UNL1        0.0335
     67 H           8.7561    4.1659    0.0000 H       1  UNL1        0.0290
     68 H           7.9579    4.1567    0.0000 H       1  UNL1        0.0290
     69 H           9.3027    3.7716    0.0000 H       1  UNL1        0.0596
     70 H           2.2753   -4.2774    0.0000 H       1  UNL1        0.0233
     71 H           2.8977   -4.8950    0.0000 H       1  UNL1        0.0233
     72 H           3.5153   -4.2726    0.0000 H       1  UNL1        0.0233
     73 H          10.1680    4.2750    0.0000 H       1  UNL1        0.2098
@<TRIPOS>BOND
     1    12     1    1
     2     1    64    1
     3    29     2    1
     4     2    73    1
     5     3     7    1
     6     3    13    1
     7     3    19    1
     8     4     5    1
     9     4     6    1
    10     4    12    1
    11     4    16    1
    12     5     7    1
    13     5    10    1
    14     5    31    1
    15     6     8    1
    16     6     9    1
    17     6    32    1
    18     7     9    1
    19     7    33    1
    20     8    11    1
    21     8    17    1
    22     8    34    1
    23     9    35    1
    24     9    36    1
    25    10    13    1
    26    10    20    1
    27    10    37    1
    28    11    14    1
    29    11    15    1
    30    11    38    1
    31    12    14    1
    32    12    39    1
    33    13    18    1
    34    13    40    1
    35    14    41    1
    36    14    42    1
    37    15    21    1
    38    15    23    1
    39    15    26    1
    40    16    43    1
    41    16    44    1
    42    16    45    1
    43    17    25    1
    44    17    46    1
    45    17    47    1
    46    18    24    1
    47    18    48    1
    48    18    49    1
    49    19    22    1
    50    19    50    1
    51    19    51    1
    52    20    52    1
    53    20    53    1
    54    20    54    1
    55    21    25    2
    56    21    27    1
    57    22    24    1
    58    22    30    1
    59    22    55    1
    60    23    28    1
    61    23    56    1
    62    23    57    1
    63    24    58    1
    64    24    59    1
    65    25    60    1
    66    26    61    1
    67    26    62    1
    68    26    63    1
    69    27    29    1
    70    27    65    1
    71    27    66    1
    72    28    29    1
    73    28    67    1
    74    28    68    1
    75    29    69    1
    76    30    70    1
    77    30    71    1
    78    30    72    1
