@<TRIPOS>MOLECULE
IMPHY002794
 61 64 0 0 0
SMALL
GASTEIGER

@<TRIPOS>ATOM
      1 O          13.0704    1.8789    0.0000 O.3     1  UNL1       -0.4854
      2 O          15.6571    1.0841    0.0000 O.3     1  UNL1       -0.3855
      3 O           4.2690   -0.9603    0.0000 O.3     1  UNL1       -0.3886
      4 O           2.5369    1.0397    0.0000 O.3     1  UNL1       -0.3866
      5 O           8.6270   -1.4949    0.0000 O.2     1  UNL1       -0.4618
      6 O           6.8671    1.5397    0.0000 O.3     1  UNL1       -0.5055
      7 O           5.1350   -1.4603    0.0000 O.3     1  UNL1       -0.5063
      8 O           8.6155    1.5743    0.0000 O.2     1  UNL1       -0.2863
      9 C          13.6571    1.0764    0.0000 C.3     1  UNL1        0.1322
     10 C          14.6571    1.0803    0.0000 C.3     1  UNL1        0.0974
     11 C          13.0766    0.2695    0.0000 C.3     1  UNL1        0.0157
     12 C          12.1292    0.5705    0.0000 C.ar    1  UNL1       -0.0015
     13 C          12.1254    1.5705    0.0000 C.ar    1  UNL1        0.1244
     14 C          14.6533    2.0803    0.0000 C.3     1  UNL1       -0.0328
     15 C          14.6610    0.0803    0.0000 C.3     1  UNL1       -0.0328
     16 C          11.2651    0.0672    0.0000 C.ar    1  UNL1       -0.0470
     17 C           4.2690    0.0397    0.0000 C.3     1  UNL1        0.0875
     18 C           3.4030    0.5397    0.0000 C.3     1  UNL1        0.0865
     19 C           5.1350    0.5397    0.0000 C.3     1  UNL1        0.0081
     20 C          10.3972    0.5639    0.0000 C.ar    1  UNL1       -0.0108
     21 C          11.2574    2.0672    0.0000 C.ar    1  UNL1       -0.0191
     22 C           6.0010    0.0397    0.0000 C.ar    1  UNL1        0.0388
     23 C          10.3933    1.5639    0.0000 C.ar    1  UNL1       -0.0503
     24 C           9.5331    0.0605    0.0000 C.ar    1  UNL1        0.0644
     25 C           7.7331    0.0397    0.0000 C.ar    1  UNL1        0.1063
     26 C           2.9030   -0.3263    0.0000 C.3     1  UNL1       -0.0339
     27 C           3.9030    1.4057    0.0000 C.3     1  UNL1       -0.0339
     28 C           6.8671    0.5397    0.0000 C.ar    1  UNL1        0.1379
     29 C           8.6270    0.5744    0.0000 C.ar    1  UNL1        0.2037
     30 C           7.7331   -0.9603    0.0000 C.ar    1  UNL1        0.1454
     31 C           6.0010   -0.9603    0.0000 C.ar    1  UNL1        0.1271
     32 C           6.8671   -1.4603    0.0000 C.ar    1  UNL1        0.0233
     33 C           9.5331   -0.9811    0.0000 C.ar    1  UNL1        0.1038
     34 H          13.9367    1.6298    0.0000 H       1  UNL1        0.0765
     35 H          12.8278   -0.2984    0.0000 H       1  UNL1        0.0351
     36 H          13.6152   -0.0377    0.0000 H       1  UNL1        0.0351
     37 H          15.2732    2.0827    0.0000 H       1  UNL1        0.0258
     38 H          14.0410    0.0779    0.0000 H       1  UNL1        0.0258
     39 H          14.6634   -0.5397    0.0000 H       1  UNL1        0.0258
     40 H          15.2810    0.0827    0.0000 H       1  UNL1        0.0258
     41 H          14.6509    2.7003    0.0000 H       1  UNL1        0.0258
     42 H          14.0333    2.0779    0.0000 H       1  UNL1        0.0258
     43 H           4.8059   -0.2703    0.0000 H       1  UNL1        0.0625
     44 H          11.2675   -0.5528    0.0000 H       1  UNL1        0.0628
     45 H           5.5335    1.0147    0.0000 H       1  UNL1        0.0341
     46 H           4.7365    1.0147    0.0000 H       1  UNL1        0.0341
     47 H          11.2550    2.6872    0.0000 H       1  UNL1        0.0654
     48 H          15.9650    1.6223    0.0000 H       1  UNL1        0.2103
     49 H           9.8552    1.8718    0.0000 H       1  UNL1        0.0625
     50 H           2.3660   -0.0163    0.0000 H       1  UNL1        0.0258
     51 H           2.5930   -0.8632    0.0000 H       1  UNL1        0.0258
     52 H           3.4399   -0.6363    0.0000 H       1  UNL1        0.0258
     53 H           4.4399    1.0957    0.0000 H       1  UNL1        0.0258
     54 H           4.2130    1.9427    0.0000 H       1  UNL1        0.0258
     55 H           3.3660    1.7157    0.0000 H       1  UNL1        0.0258
     56 H           6.8671   -2.0803    0.0000 H       1  UNL1        0.0691
     57 H          10.0688   -1.2932    0.0000 H       1  UNL1        0.1037
     58 H           3.7320   -1.2703    0.0000 H       1  UNL1        0.2099
     59 H           2.0000    0.7297    0.0000 H       1  UNL1        0.2102
     60 H           6.3301    1.8497    0.0000 H       1  UNL1        0.2922
     61 H           5.1350   -2.0803    0.0000 H       1  UNL1        0.2921
@<TRIPOS>BOND
     1     1     9    1
     2     1    13    1
     3     2    10    1
     4     2    48    1
     5     3    17    1
     6     3    58    1
     7     4    18    1
     8     4    59    1
     9     5    30   ar
    10     5    33   ar
    11     6    28    1
    12     6    60    1
    13     7    31    1
    14     7    61    1
    15     8    29    2
    16     9    10    1
    17     9    11    1
    18     9    34    1
    19    10    14    1
    20    10    15    1
    21    11    12    1
    22    11    35    1
    23    11    36    1
    24    12    13   ar
    25    12    16   ar
    26    13    21   ar
    27    14    37    1
    28    14    41    1
    29    14    42    1
    30    15    38    1
    31    15    39    1
    32    15    40    1
    33    16    20   ar
    34    16    44    1
    35    17    18    1
    36    17    19    1
    37    17    43    1
    38    18    26    1
    39    18    27    1
    40    19    22    1
    41    19    45    1
    42    19    46    1
    43    20    23   ar
    44    20    24    1
    45    21    23   ar
    46    21    47    1
    47    22    28   ar
    48    22    31   ar
    49    23    49    1
    50    24    29   ar
    51    24    33   ar
    52    25    28   ar
    53    25    29   ar
    54    25    30   ar
    55    26    50    1
    56    26    51    1
    57    26    52    1
    58    27    53    1
    59    27    54    1
    60    27    55    1
    61    30    32   ar
    62    31    32   ar
    63    32    56    1
    64    33    57    1
