@<TRIPOS>MOLECULE
IMPHY006530
 54 56 0 0 0
SMALL
GASTEIGER

@<TRIPOS>ATOM
      1 O           5.5007   -0.5494    0.0000 O.3     1  UNL1       -0.3532
      2 O           6.9967   -1.1488    0.0000 O.3     1  UNL1       -0.4512
      3 O           2.3100   -0.9977    0.0000 O.3     1  UNL1       -0.3774
      4 O           6.4041   -2.7546    0.0000 O.2     1  UNL1       -0.2475
      5 O           3.7583    0.6754    0.0000 O.3     1  UNL1       -0.4578
      6 O           5.0133   -0.2034    0.0000 O.2     1  UNL1       -0.2476
      7 O           4.8481    0.4587    0.0000 O.2     1  UNL1       -0.2883
      8 N           7.6618    2.0476    0.0000 N.3     1  UNL1       -0.3016
      9 C           5.2418   -1.5153    0.0000 C.3     1  UNL1        0.1916
     10 C           4.5347   -0.8082    0.0000 C.3     1  UNL1        0.0968
     11 C           4.5347   -2.2224    0.0000 C.3     1  UNL1       -0.0050
     12 C           3.5688   -1.9636    0.0000 C.3     1  UNL1       -0.0015
     13 C           6.2078   -1.7741    0.0000 C.2     1  UNL1        0.3427
     14 C           3.3100   -0.9977    0.0000 C.3     1  UNL1        0.1618
     15 C           3.4239   -0.5105    0.0000 C.3     1  UNL1       -0.0354
     16 C           2.8617   -2.6707    0.0000 C.3     1  UNL1       -0.0592
     17 C           2.6672   -0.2316    0.0000 C.3     1  UNL1       -0.0253
     18 C           6.7379   -0.1829    0.0000 C.3     1  UNL1        0.1661
     19 C           4.0171   -0.2905    0.0000 C.2     1  UNL1        0.3394
     20 C           7.6618    0.1998    0.0000 C.3     1  UNL1        0.0045
     21 C           5.8140    0.1998    0.0000 C.2     1  UNL1        0.2025
     22 C           8.0444    1.1237    0.0000 C.3     1  UNL1        0.0027
     23 C           5.4313    1.1237    0.0000 C.2     1  UNL1        0.0331
     24 C           4.4654    1.3825    0.0000 C.3     1  UNL1        0.1207
     25 C           6.7379    2.4302    0.0000 C.3     1  UNL1        0.0176
     26 C           5.8140    2.0476    0.0000 C.2     1  UNL1       -0.0602
     27 C           8.3689    2.7546    0.0000 C.3     1  UNL1       -0.0124
     28 H           4.5347   -0.1882    0.0000 H       1  UNL1        0.0628
     29 H           4.2727   -2.7843    0.0000 H       1  UNL1        0.0303
     30 H           5.0426   -2.5780    0.0000 H       1  UNL1        0.0303
     31 H           2.9699   -1.8031    0.0000 H       1  UNL1        0.0332
     32 H           3.5844    0.0883    0.0000 H       1  UNL1        0.0256
     33 H           2.8251   -0.3501    0.0000 H       1  UNL1        0.0256
     34 H           3.2635   -1.1094    0.0000 H       1  UNL1        0.0256
     35 H           2.4233   -2.2323    0.0000 H       1  UNL1        0.0233
     36 H           2.4233   -3.1091    0.0000 H       1  UNL1        0.0233
     37 H           3.3001   -3.1091    0.0000 H       1  UNL1        0.0233
     38 H           3.1422    0.1669    0.0000 H       1  UNL1        0.0263
     39 H           2.2687    0.2433    0.0000 H       1  UNL1        0.0263
     40 H           2.1923   -0.6301    0.0000 H       1  UNL1        0.0263
     41 H           7.5002   -0.5588    0.0000 H       1  UNL1        0.0819
     42 H           7.7427   -0.4149    0.0000 H       1  UNL1        0.0318
     43 H           8.2765    0.1189    0.0000 H       1  UNL1        0.0318
     44 H           2.0000   -1.5346    0.0000 H       1  UNL1        0.2109
     45 H           8.5363    0.7462    0.0000 H       1  UNL1        0.0428
     46 H           8.5363    1.5011    0.0000 H       1  UNL1        0.0428
     47 H           4.7274    1.9444    0.0000 H       1  UNL1        0.0750
     48 H           3.9575    1.7381    0.0000 H       1  UNL1        0.0750
     49 H           7.1153    2.9221    0.0000 H       1  UNL1        0.0470
     50 H           6.3604    2.9221    0.0000 H       1  UNL1        0.0470
     51 H           5.3756    2.4860    0.0000 H       1  UNL1        0.0590
     52 H           8.8073    2.3162    0.0000 H       1  UNL1        0.0391
     53 H           8.8073    3.1931    0.0000 H       1  UNL1        0.0391
     54 H           7.9305    3.1931    0.0000 H       1  UNL1        0.0391
@<TRIPOS>BOND
     1     9     1    1
     2     1    10    1
     3     2    13    1
     4     2    18    1
     5    14     3    1
     6     3    44    1
     7     4    13    2
     8     5    19    1
     9     5    24    1
    10     6    19    2
    11     7    21    2
    12     8    22    1
    13     8    25    1
    14     8    27    1
    15     9    10    1
    16     9    11    1
    17     9    13    1
    18    10    15    1
    19    10    28    1
    20    11    12    1
    21    11    29    1
    22    11    30    1
    23    12    14    1
    24    12    16    1
    25    12    31    1
    26    14    17    1
    27    14    19    1
    28    15    32    1
    29    15    33    1
    30    15    34    1
    31    16    35    1
    32    16    36    1
    33    16    37    1
    34    17    38    1
    35    17    39    1
    36    17    40    1
    37    18    20    1
    38    18    21    1
    39    18    41    1
    40    20    22    1
    41    20    42    1
    42    20    43    1
    43    21    23    1
    44    22    45    1
    45    22    46    1
    46    23    24    1
    47    23    26    2
    48    24    47    1
    49    24    48    1
    50    25    26    1
    51    25    49    1
    52    25    50    1
    53    26    51    1
    54    27    52    1
    55    27    53    1
    56    27    54    1
