@<TRIPOS>MOLECULE
IMPHY004278
 74 79 0 0 0
SMALL
GASTEIGER

@<TRIPOS>ATOM
      1 O           7.7848    2.5768    0.0000 O.3     1  UNL1       -0.3722
      2 O          10.1702    0.2408    0.0000 O.3     1  UNL1       -0.4606
      3 O           2.9755   -0.2395    0.0000 O.2     1  UNL1       -0.2918
      4 O          11.9344   -0.0102    0.0000 O.2     1  UNL1       -0.2503
      5 O          12.8200    1.7728    0.0000 O.3     1  UNL1       -0.3821
      6 C           6.5251   -0.2965    0.0000 C.3     1  UNL1       -0.0257
      7 C           6.5251   -1.2965    0.0000 C.3     1  UNL1       -0.0320
      8 C           7.4714    0.0082    0.0000 C.3     1  UNL1       -0.0271
      9 C           5.6591   -1.7965    0.0000 C.3     1  UNL1       -0.0302
     10 C           4.7931   -1.2965    0.0000 C.3     1  UNL1       -0.0215
     11 C           5.6591    0.2035    0.0000 C.3     1  UNL1       -0.0468
     12 C           7.4714   -1.6012    0.0000 C.3     1  UNL1       -0.0492
     13 C           8.0550   -0.7965    0.0000 C.3     1  UNL1       -0.0490
     14 C           7.7820    0.9587    0.0000 C.3     1  UNL1        0.0230
     15 C           4.7931   -0.2965    0.0000 C.3     1  UNL1       -0.0482
     16 C           3.8831   -1.8034    0.0000 C.3     1  UNL1        0.0544
     17 C           6.5251    0.7035    0.0000 C.3     1  UNL1       -0.0590
     18 C           5.6752   -2.8380    0.0000 C.3     1  UNL1       -0.0311
     19 C           9.2168    1.3947    0.0000 C.3     1  UNL1        0.1109
     20 C           7.1956    1.7688    0.0000 C.3     1  UNL1        0.0548
     21 C           3.8751   -2.8450    0.0000 C.2     1  UNL1       -0.0562
     22 C           4.7771   -3.3658    0.0000 C.2     1  UNL1       -0.0832
     23 C          10.1857    3.1515    0.0000 C.3     1  UNL1        0.0145
     24 C           9.2185    2.3947    0.0000 C.3     1  UNL1        0.0851
     25 C           3.8908   -0.8034    0.0000 C.3     1  UNL1       -0.0485
     26 C           2.9562   -1.2393    0.0000 C.2     1  UNL1        0.1659
     27 C          11.1005    1.5647    0.0000 C.3     1  UNL1        0.1083
     28 C           2.9396   -3.3947    0.0000 C.3     1  UNL1       -0.0122
     29 C          11.1163    0.5648    0.0000 C.2     1  UNL1        0.3155
     30 C           9.2203    3.3947    0.0000 C.3     1  UNL1       -0.0348
     31 C           2.0084   -1.7672    0.0000 C.2     1  UNL1       -0.0220
     32 C           2.0000   -2.8522    0.0000 C.2     1  UNL1       -0.0767
     33 C          11.9002    2.1651    0.0000 C.3     1  UNL1        0.0629
     34 C          13.6197    2.3732    0.0000 C.3     1  UNL1        0.0365
     35 H           6.6151   -2.1417    0.0000 H       1  UNL1        0.0309
     36 H           8.3111    0.1401    0.0000 H       1  UNL1        0.0311
     37 H           6.3985   -2.2158    0.0000 H       1  UNL1        0.0310
     38 H           5.5292   -0.8715    0.0000 H       1  UNL1        0.0316
     39 H           6.0576    0.6784    0.0000 H       1  UNL1        0.0271
     40 H           5.2606    0.6784    0.0000 H       1  UNL1        0.0271
     41 H           7.2203   -2.1681    0.0000 H       1  UNL1        0.0268
     42 H           8.0087   -1.9105    0.0000 H       1  UNL1        0.0268
     43 H           8.5158   -1.2112    0.0000 H       1  UNL1        0.0268
     44 H           8.5158   -0.3818    0.0000 H       1  UNL1        0.0268
     45 H           6.9423    0.8272    0.0000 H       1  UNL1        0.0362
     46 H           4.5810    0.2861    0.0000 H       1  UNL1        0.0269
     47 H           4.1825   -0.4042    0.0000 H       1  UNL1        0.0269
     48 H           7.1451    0.7035    0.0000 H       1  UNL1        0.0235
     49 H           6.5251    1.3235    0.0000 H       1  UNL1        0.0235
     50 H           5.9051    0.7035    0.0000 H       1  UNL1        0.0235
     51 H           5.8932   -3.4184    0.0000 H       1  UNL1        0.0310
     52 H           6.2843   -2.7225    0.0000 H       1  UNL1        0.0310
     53 H           9.2153    0.5447    0.0000 H       1  UNL1        0.0738
     54 H           6.7356    2.1844    0.0000 H       1  UNL1        0.0564
     55 H           6.7342    1.3547    0.0000 H       1  UNL1        0.0564
     56 H           4.7795   -3.9858    0.0000 H       1  UNL1        0.0572
     57 H          10.8016    3.0806    0.0000 H       1  UNL1        0.0329
     58 H          10.0175    3.7482    0.0000 H       1  UNL1        0.0329
     59 H           4.5108   -0.8082    0.0000 H       1  UNL1        0.0242
     60 H           3.8956   -0.1834    0.0000 H       1  UNL1        0.0242
     61 H           3.2708   -0.7986    0.0000 H       1  UNL1        0.0242
     62 H          11.8639    1.1907    0.0000 H       1  UNL1        0.0465
     63 H           2.5423   -3.8706    0.0000 H       1  UNL1        0.0353
     64 H           3.3406   -3.8676    0.0000 H       1  UNL1        0.0353
     65 H           9.8403    3.3936    0.0000 H       1  UNL1        0.0258
     66 H           9.2213    4.0147    0.0000 H       1  UNL1        0.0258
     67 H           8.6003    3.3958    0.0000 H       1  UNL1        0.0258
     68 H           1.4750   -1.4510    0.0000 H       1  UNL1        0.0649
     69 H           1.4619   -3.1601    0.0000 H       1  UNL1        0.0576
     70 H          12.2388    2.6845    0.0000 H       1  UNL1        0.0569
     71 H          11.4475    2.5887    0.0000 H       1  UNL1        0.0569
     72 H          13.9920    1.8774    0.0000 H       1  UNL1        0.0523
     73 H          14.1155    2.7455    0.0000 H       1  UNL1        0.0523
     74 H          13.2474    2.8690    0.0000 H       1  UNL1        0.0523
@<TRIPOS>BOND
     1     1    20    1
     2     1    24    1
     3     2    19    1
     4     2    29    1
     5     3    26    2
     6     4    29    2
     7     5    33    1
     8     5    34    1
     9     6     7    1
    10     6     8    1
    11     6    11    1
    12     6    17    1
    13     7     9    1
    14     7    12    1
    15     7    35    1
    16     8    13    1
    17     8    14    1
    18     8    36    1
    19     9    10    1
    20     9    18    1
    21     9    37    1
    22    10    15    1
    23    10    16    1
    24    10    38    1
    25    11    15    1
    26    11    39    1
    27    11    40    1
    28    12    13    1
    29    12    41    1
    30    12    42    1
    31    13    43    1
    32    13    44    1
    33    14    19    1
    34    14    20    1
    35    14    45    1
    36    15    46    1
    37    15    47    1
    38    16    21    1
    39    16    25    1
    40    16    26    1
    41    17    48    1
    42    17    49    1
    43    17    50    1
    44    18    22    1
    45    18    51    1
    46    18    52    1
    47    19    23    1
    48    19    53    1
    49    20    54    1
    50    20    55    1
    51    21    22    2
    52    21    28    1
    53    22    56    1
    54    23    24    1
    55    23    57    1
    56    23    58    1
    57    24    27    1
    58    24    30    1
    59    25    59    1
    60    25    60    1
    61    25    61    1
    62    26    31    1
    63    27    29    1
    64    27    33    1
    65    27    62    1
    66    28    32    1
    67    28    63    1
    68    28    64    1
    69    30    65    1
    70    30    66    1
    71    30    67    1
    72    31    32    2
    73    31    68    1
    74    32    69    1
    75    33    70    1
    76    33    71    1
    77    34    72    1
    78    34    73    1
    79    34    74    1
