@<TRIPOS>MOLECULE
IMPHY017123
 40 41 0 0 0
SMALL
GASTEIGER

@<TRIPOS>ATOM
      1 O           2.6126    2.2754    0.0000 O.3     1  UNL1       -0.3888
      2 C           5.6261    0.3258    0.0000 C.3     1  UNL1       -0.0130
      3 C           5.6311   -0.6742    0.0000 C.3     1  UNL1       -0.0102
      4 C           3.8674    0.7180    0.0000 C.3     1  UNL1       -0.0118
      5 C           4.8412    0.9454    0.0000 C.3     1  UNL1       -0.0405
      6 C           3.4380   -0.1851    0.0000 C.3     1  UNL1       -0.0439
      7 C           3.2400    1.4967    0.0000 C.3     1  UNL1        0.0634
      8 C           6.5788   -0.9742    0.0000 C.3     1  UNL1       -0.0274
      9 C           6.5708    0.6352    0.0000 C.2     1  UNL1       -0.0728
     10 C           4.8524   -1.3016    0.0000 C.2     1  UNL1       -0.0727
     11 C           3.8764   -1.0839    0.0000 C.3     1  UNL1       -0.0314
     12 C           7.1584   -0.1666    0.0000 C.2     1  UNL1       -0.0842
     13 C           2.4613    0.8693    0.0000 C.3     1  UNL1       -0.0361
     14 C           4.0187    2.1241    0.0000 C.3     1  UNL1       -0.0361
     15 C           6.8767    1.5873    0.0000 C.3     1  UNL1       -0.0435
     16 C           5.0798   -2.2754    0.0000 C.2     1  UNL1       -0.0992
     17 H           5.7748    1.1627    0.0000 H       1  UNL1        0.0351
     18 H           5.7881   -1.5096    0.0000 H       1  UNL1        0.0354
     19 H           4.1441    1.5217    0.0000 H       1  UNL1        0.0329
     20 H           5.3240    1.3343    0.0000 H       1  UNL1        0.0275
     21 H           4.5694    1.5026    0.0000 H       1  UNL1        0.0275
     22 H           2.9513    0.1990    0.0000 H       1  UNL1        0.0272
     23 H           2.9552   -0.5741    0.0000 H       1  UNL1        0.0272
     24 H           6.3306   -1.5424    0.0000 H       1  UNL1        0.0313
     25 H           7.1177   -1.2808    0.0000 H       1  UNL1        0.0313
     26 H           3.2726   -1.2249    0.0000 H       1  UNL1        0.0310
     27 H           3.8794   -1.7039    0.0000 H       1  UNL1        0.0310
     28 H           7.7784   -0.1635    0.0000 H       1  UNL1        0.0572
     29 H           2.0723    1.3521    0.0000 H       1  UNL1        0.0257
     30 H           1.9785    0.4803    0.0000 H       1  UNL1        0.0257
     31 H           2.8502    0.3865    0.0000 H       1  UNL1        0.0257
     32 H           4.4077    1.6413    0.0000 H       1  UNL1        0.0257
     33 H           4.5015    2.5130    0.0000 H       1  UNL1        0.0257
     34 H           3.6297    2.6069    0.0000 H       1  UNL1        0.0257
     35 H           7.4670    1.3976    0.0000 H       1  UNL1        0.0274
     36 H           7.0664    2.1776    0.0000 H       1  UNL1        0.0274
     37 H           6.2864    1.7770    0.0000 H       1  UNL1        0.0274
     38 H           4.6274   -2.6994    0.0000 H       1  UNL1        0.0534
     39 H           5.6731   -2.4552    0.0000 H       1  UNL1        0.0534
     40 H           2.0000    2.1799    0.0000 H       1  UNL1        0.2101
@<TRIPOS>BOND
     1     1     7    1
     2     1    40    1
     3     2     3    1
     4     2     5    1
     5     2     9    1
     6     2    17    1
     7     3     8    1
     8     3    10    1
     9     3    18    1
    10     4     5    1
    11     4     6    1
    12     4     7    1
    13     4    19    1
    14     5    20    1
    15     5    21    1
    16     6    11    1
    17     6    22    1
    18     6    23    1
    19     7    13    1
    20     7    14    1
    21     8    12    1
    22     8    24    1
    23     8    25    1
    24     9    12    2
    25     9    15    1
    26    10    11    1
    27    10    16    2
    28    11    26    1
    29    11    27    1
    30    12    28    1
    31    13    29    1
    32    13    30    1
    33    13    31    1
    34    14    32    1
    35    14    33    1
    36    14    34    1
    37    15    35    1
    38    15    36    1
    39    15    37    1
    40    16    38    1
    41    16    39    1
