@<TRIPOS>MOLECULE
IMPHY006322
 25 25 0 0 0
SMALL
GASTEIGER

@<TRIPOS>ATOM
      1 O           4.7320    1.7500    0.0000 O.2     1  UNL1       -0.2960
      2 C           3.0000   -0.2500    0.0000 C.3     1  UNL1       -0.0032
      3 C           3.0000   -1.2500    0.0000 C.3     1  UNL1       -0.0252
      4 C           3.8660    0.2500    0.0000 C.2     1  UNL1        0.0006
      5 C           2.0000   -0.2500    0.0000 C.3     1  UNL1       -0.0554
      6 C           2.5000    0.6160    0.0000 C.3     1  UNL1       -0.0554
      7 C           4.7320   -0.2500    0.0000 C.2     1  UNL1       -0.0440
      8 C           3.8660   -1.7500    0.0000 C.2     1  UNL1       -0.0829
      9 C           4.7320   -1.2500    0.0000 C.2     1  UNL1       -0.0624
     10 C           3.8660    1.2500    0.0000 C.2     1  UNL1        0.1470
     11 C           5.5981    0.2500    0.0000 C.3     1  UNL1       -0.0393
     12 H           2.3894   -1.1423    0.0000 H       1  UNL1        0.0316
     13 H           2.7880   -1.8326    0.0000 H       1  UNL1        0.0316
     14 H           3.0369    0.9260    0.0000 H       1  UNL1        0.0238
     15 H           2.1900    1.1530    0.0000 H       1  UNL1        0.0238
     16 H           1.9631    0.3060    0.0000 H       1  UNL1        0.0238
     17 H           2.0000    0.3700    0.0000 H       1  UNL1        0.0238
     18 H           1.3800   -0.2500    0.0000 H       1  UNL1        0.0238
     19 H           2.0000   -0.8700    0.0000 H       1  UNL1        0.0238
     20 H           3.8660   -2.3700    0.0000 H       1  UNL1        0.0572
     21 H           5.2690   -1.5600    0.0000 H       1  UNL1        0.0617
     22 H           3.3291    1.5600    0.0000 H       1  UNL1        0.1078
     23 H           5.9081   -0.2869    0.0000 H       1  UNL1        0.0278
     24 H           6.1350    0.5600    0.0000 H       1  UNL1        0.0278
     25 H           5.2881    0.7869    0.0000 H       1  UNL1        0.0278
@<TRIPOS>BOND
     1     1    10    2
     2     2     3    1
     3     2     4    1
     4     2     5    1
     5     2     6    1
     6     3     8    1
     7     3    12    1
     8     3    13    1
     9     4     7    2
    10     4    10    1
    11     5    17    1
    12     5    18    1
    13     5    19    1
    14     6    14    1
    15     6    15    1
    16     6    16    1
    17     7     9    1
    18     7    11    1
    19     8     9    2
    20     8    20    1
    21     9    21    1
    22    10    22    1
    23    11    23    1
    24    11    24    1
    25    11    25    1
