@<TRIPOS>MOLECULE
IMPHY014382
 30 32 0 0 0
SMALL
GASTEIGER

@<TRIPOS>ATOM
      1 O           3.7817    0.9160    0.0000 O.3     1  UNL1       -0.5060
      2 O           8.1821    1.4265    0.0000 O.3     1  UNL1       -0.5033
      3 O           6.4082    2.4507    0.0000 O.3     1  UNL1       -0.5033
      4 O           2.0000   -2.1427    0.0000 O.3     1  UNL1       -0.5066
      5 C           6.3961   -1.6186    0.0000 C.3     1  UNL1       -0.0230
      6 C           5.5301   -2.1186    0.0000 C.3     1  UNL1       -0.0229
      7 C           6.3961   -0.6186    0.0000 C.ar    1  UNL1       -0.0355
      8 C           4.6641   -1.6186    0.0000 C.ar    1  UNL1       -0.0324
      9 C           4.6641   -0.6186    0.0000 C.ar    1  UNL1        0.0273
     10 C           5.5301   -0.1186    0.0000 C.ar    1  UNL1       -0.0073
     11 C           3.7702   -0.0839    0.0000 C.ar    1  UNL1        0.1283
     12 C           7.3062   -0.1117    0.0000 C.ar    1  UNL1       -0.0128
     13 C           3.7702   -2.1532    0.0000 C.ar    1  UNL1       -0.0162
     14 C           5.5141    0.9229    0.0000 C.ar    1  UNL1       -0.0084
     15 C           7.3142    0.9299    0.0000 C.ar    1  UNL1        0.1585
     16 C           6.4121    1.4507    0.0000 C.ar    1  UNL1        0.1588
     17 C           2.8641   -1.6394    0.0000 C.ar    1  UNL1        0.1206
     18 C           2.8641   -0.5978    0.0000 C.ar    1  UNL1        0.0219
     19 H           6.6082   -2.2012    0.0000 H       1  UNL1        0.0317
     20 H           7.0067   -1.5109    0.0000 H       1  UNL1        0.0317
     21 H           5.1316   -2.5935    0.0000 H       1  UNL1        0.0317
     22 H           5.9286   -2.5935    0.0000 H       1  UNL1        0.0317
     23 H           7.8395   -0.4279    0.0000 H       1  UNL1        0.0658
     24 H           3.7773   -2.7732    0.0000 H       1  UNL1        0.0657
     25 H           4.9736    1.2267    0.0000 H       1  UNL1        0.0661
     26 H           2.3284   -0.2857    0.0000 H       1  UNL1        0.0691
     27 H           3.2484    1.2322    0.0000 H       1  UNL1        0.2922
     28 H           8.7179    1.1144    0.0000 H       1  UNL1        0.2923
     29 H           6.9440    2.7627    0.0000 H       1  UNL1        0.2923
     30 H           2.0024   -2.7627    0.0000 H       1  UNL1        0.2921
@<TRIPOS>BOND
     1     1    11    1
     2     1    27    1
     3     2    15    1
     4     2    28    1
     5     3    16    1
     6     3    29    1
     7     4    17    1
     8     4    30    1
     9     5     6    1
    10     5     7    1
    11     5    19    1
    12     5    20    1
    13     6     8    1
    14     6    21    1
    15     6    22    1
    16     7    10   ar
    17     7    12   ar
    18     8     9   ar
    19     8    13   ar
    20     9    10    1
    21     9    11   ar
    22    10    14   ar
    23    11    18   ar
    24    12    15   ar
    25    12    23    1
    26    13    17   ar
    27    13    24    1
    28    14    16   ar
    29    14    25    1
    30    15    16   ar
    31    17    18   ar
    32    18    26    1
