@<TRIPOS>MOLECULE
IMPHY001496
 36 38 0 0 0
SMALL
GASTEIGER

@<TRIPOS>ATOM
      1 O           4.1714    2.2219    0.0000 O.2     1  UNL1       -0.4590
      2 O           7.2622    1.2781    0.0000 O.2     1  UNL1       -0.2919
      3 O           2.0000    1.3022    0.0000 O.2     1  UNL1       -0.2885
      4 C           4.6641   -0.2219    0.0000 C.3     1  UNL1       -0.0074
      5 C           5.5301   -0.7219    0.0000 C.3     1  UNL1       -0.0247
      6 C           3.7702   -0.7566    0.0000 C.3     1  UNL1       -0.0361
      7 C           4.6641    0.7781    0.0000 C.ar    1  UNL1        0.0151
      8 C           5.5301   -1.7219    0.0000 C.3     1  UNL1       -0.0429
      9 C           6.3961   -0.2219    0.0000 C.3     1  UNL1        0.0142
     10 C           2.8641   -0.2428    0.0000 C.3     1  UNL1        0.0230
     11 C           5.5301    1.2781    0.0000 C.ar    1  UNL1        0.0592
     12 C           3.7702    1.3127    0.0000 C.ar    1  UNL1        0.1742
     13 C           6.3961    0.7781    0.0000 C.2     1  UNL1        0.1668
     14 C           2.8641    0.7989    0.0000 C.2     1  UNL1        0.2010
     15 C           6.3961   -2.2219    0.0000 C.3     1  UNL1       -0.0624
     16 C           4.6641   -2.2219    0.0000 C.3     1  UNL1       -0.0624
     17 C           2.0000   -0.7461    0.0000 C.3     1  UNL1       -0.0552
     18 C           5.1650    2.2024    0.0000 C.ar    1  UNL1        0.1035
     19 H           4.6706   -1.0719    0.0000 H       1  UNL1        0.0353
     20 H           6.0671   -1.0319    0.0000 H       1  UNL1        0.0313
     21 H           3.3765   -1.2356    0.0000 H       1  UNL1        0.0278
     22 H           4.1748   -1.2264    0.0000 H       1  UNL1        0.0278
     23 H           5.5301   -2.3419    0.0000 H       1  UNL1        0.0298
     24 H           6.6082   -0.8046    0.0000 H       1  UNL1        0.0348
     25 H           7.0067   -0.1143    0.0000 H       1  UNL1        0.0348
     26 H           2.3266    0.0662    0.0000 H       1  UNL1        0.0379
     27 H           6.0862   -2.7589    0.0000 H       1  UNL1        0.0232
     28 H           6.9331   -2.5319    0.0000 H       1  UNL1        0.0232
     29 H           6.7062   -1.6850    0.0000 H       1  UNL1        0.0232
     30 H           4.3541   -1.6850    0.0000 H       1  UNL1        0.0232
     31 H           4.1272   -2.5319    0.0000 H       1  UNL1        0.0232
     32 H           4.9741   -2.7589    0.0000 H       1  UNL1        0.0232
     33 H           1.6879   -0.2104    0.0000 H       1  UNL1        0.0237
     34 H           1.4643   -1.0582    0.0000 H       1  UNL1        0.0237
     35 H           2.3121   -1.2818    0.0000 H       1  UNL1        0.0237
     36 H           5.5187    2.7116    0.0000 H       1  UNL1        0.1037
@<TRIPOS>BOND
     1     1    12   ar
     2     1    18   ar
     3     2    13    2
     4     3    14    2
     5     4     5    1
     6     4     6    1
     7     4     7    1
     8     4    19    1
     9     5     8    1
    10     5     9    1
    11     5    20    1
    12     6    10    1
    13     6    21    1
    14     6    22    1
    15     7    11   ar
    16     7    12   ar
    17     8    15    1
    18     8    16    1
    19     8    23    1
    20     9    13    1
    21     9    24    1
    22     9    25    1
    23    10    14    1
    24    10    17    1
    25    10    26    1
    26    11    13    1
    27    11    18   ar
    28    12    14    1
    29    15    27    1
    30    15    28    1
    31    15    29    1
    32    16    30    1
    33    16    31    1
    34    16    32    1
    35    17    33    1
    36    17    34    1
    37    17    35    1
    38    18    36    1
