@<TRIPOS>MOLECULE
IMPHY015499
 18 18 0 0 0
SMALL
GASTEIGER

@<TRIPOS>ATOM
      1 O           3.7320    1.0000    0.0000 O.3     1  UNL1       -0.4621
      2 O           4.5981    2.5000    0.0000 O.2     1  UNL1       -0.2546
      3 C           2.8660   -0.5000    0.0000 C.ar    1  UNL1       -0.0103
      4 C           2.8660    0.5000    0.0000 C.3     1  UNL1        0.1173
      5 C           2.0000   -1.0000    0.0000 C.ar    1  UNL1       -0.0554
      6 C           3.7320   -1.0000    0.0000 C.ar    1  UNL1       -0.0554
      7 C           2.0000   -2.0000    0.0000 C.ar    1  UNL1       -0.0614
      8 C           3.7320   -2.0000    0.0000 C.ar    1  UNL1       -0.0614
      9 C           2.8660   -2.5000    0.0000 C.ar    1  UNL1       -0.0617
     10 C           3.7320    2.0000    0.0000 C.2     1  UNL1        0.2946
     11 H           2.6540    1.0826    0.0000 H       1  UNL1        0.0749
     12 H           2.2554    0.3923    0.0000 H       1  UNL1        0.0749
     13 H           1.4631   -0.6900    0.0000 H       1  UNL1        0.0621
     14 H           4.2690   -0.6900    0.0000 H       1  UNL1        0.0621
     15 H           1.4631   -2.3100    0.0000 H       1  UNL1        0.0618
     16 H           4.2690   -2.3100    0.0000 H       1  UNL1        0.0618
     17 H           2.8660   -3.1200    0.0000 H       1  UNL1        0.0618
     18 H           3.1951    2.3100    0.0000 H       1  UNL1        0.1512
@<TRIPOS>BOND
     1     1     4    1
     2     1    10    1
     3     2    10    2
     4     3     4    1
     5     3     5   ar
     6     3     6   ar
     7     4    11    1
     8     4    12    1
     9     5     7   ar
    10     5    13    1
    11     6     8   ar
    12     6    14    1
    13     7     9   ar
    14     7    15    1
    15     8     9   ar
    16     8    16    1
    17     9    17    1
    18    10    18    1
