@<TRIPOS>MOLECULE
IMPHY015710
 54 57 0 0 0
SMALL
GASTEIGER

@<TRIPOS>ATOM
      1 O          12.6221   -1.0347    0.0000 O.3     1  UNL1       -0.4815
      2 O           3.9061   -1.0347    0.0000 O.3     1  UNL1       -0.4780
      3 O          10.8622    2.0000    0.0000 O.3     1  UNL1       -0.5053
      4 O           5.6660   -2.0000    0.0000 O.3     1  UNL1       -0.5033
      5 O           9.1301    2.0000    0.0000 O.2     1  UNL1       -0.2872
      6 C          13.5282   -0.5208    0.0000 C.3     1  UNL1        0.1235
      7 C           3.0000   -0.5208    0.0000 C.3     1  UNL1        0.1237
      8 C          13.5282    0.5208    0.0000 C.2     1  UNL1       -0.0408
      9 C           3.0000    0.5208    0.0000 C.2     1  UNL1       -0.0409
     10 C          11.7282    0.5000    0.0000 C.ar    1  UNL1        0.0586
     11 C          11.7282   -0.5000    0.0000 C.ar    1  UNL1        0.1324
     12 C           4.8000   -0.5000    0.0000 C.ar    1  UNL1        0.1700
     13 C           4.8000    0.5000    0.0000 C.ar    1  UNL1        0.0207
     14 C          14.5282   -0.5247    0.0000 C.3     1  UNL1       -0.0215
     15 C          14.0249   -1.3888    0.0000 C.3     1  UNL1       -0.0215
     16 C           2.0000   -0.5247    0.0000 C.3     1  UNL1       -0.0215
     17 C           2.5033   -1.3888    0.0000 C.3     1  UNL1       -0.0215
     18 C          12.6221    1.0347    0.0000 C.2     1  UNL1       -0.0478
     19 C           3.9061    1.0347    0.0000 C.2     1  UNL1       -0.0512
     20 C          10.8622    1.0000    0.0000 C.ar    1  UNL1        0.1382
     21 C           5.6660    1.0000    0.0000 C.ar    1  UNL1       -0.0437
     22 C           5.6660   -1.0000    0.0000 C.ar    1  UNL1        0.1597
     23 C           9.9962    0.5000    0.0000 C.ar    1  UNL1        0.0638
     24 C           6.5320    0.5000    0.0000 C.ar    1  UNL1       -0.0207
     25 C          10.8622   -1.0000    0.0000 C.ar    1  UNL1       -0.0184
     26 C           6.5320   -0.5000    0.0000 C.ar    1  UNL1       -0.0093
     27 C           9.9962   -0.5000    0.0000 C.ar    1  UNL1       -0.0439
     28 C           9.1301    1.0000    0.0000 C.2     1  UNL1        0.1896
     29 C           7.3981    1.0000    0.0000 C.2     1  UNL1       -0.0508
     30 C           8.2641    0.5000    0.0000 C.2     1  UNL1       -0.0137
     31 H          14.0640    0.8329    0.0000 H       1  UNL1        0.0611
     32 H           2.4643    0.8329    0.0000 H       1  UNL1        0.0611
     33 H          14.5258   -1.1447    0.0000 H       1  UNL1        0.0271
     34 H          15.1482   -0.5271    0.0000 H       1  UNL1        0.0271
     35 H          14.5306    0.0953    0.0000 H       1  UNL1        0.0271
     36 H          13.4867   -1.6967    0.0000 H       1  UNL1        0.0271
     37 H          14.3328   -1.9269    0.0000 H       1  UNL1        0.0271
     38 H          14.5630   -1.0808    0.0000 H       1  UNL1        0.0271
     39 H           1.9976    0.0953    0.0000 H       1  UNL1        0.0271
     40 H           1.3800   -0.5271    0.0000 H       1  UNL1        0.0271
     41 H           2.0024   -1.1447    0.0000 H       1  UNL1        0.0271
     42 H           1.9652   -1.0808    0.0000 H       1  UNL1        0.0271
     43 H           2.1954   -1.9269    0.0000 H       1  UNL1        0.0271
     44 H           3.0415   -1.6967    0.0000 H       1  UNL1        0.0271
     45 H          12.6150    1.6546    0.0000 H       1  UNL1        0.0624
     46 H           3.9132    1.6546    0.0000 H       1  UNL1        0.0623
     47 H           5.6660    1.6200    0.0000 H       1  UNL1        0.0630
     48 H          10.8622   -1.6200    0.0000 H       1  UNL1        0.0654
     49 H           7.0690   -0.8100    0.0000 H       1  UNL1        0.0661
     50 H           9.4592   -0.8100    0.0000 H       1  UNL1        0.0627
     51 H           7.3981    1.6200    0.0000 H       1  UNL1        0.0625
     52 H           8.2641   -0.1200    0.0000 H       1  UNL1        0.0656
     53 H          11.3991    2.3100    0.0000 H       1  UNL1        0.2922
     54 H           6.2030   -2.3100    0.0000 H       1  UNL1        0.2923
@<TRIPOS>BOND
     1     1     6    1
     2     1    11    1
     3     2     7    1
     4     2    12    1
     5     3    20    1
     6     3    53    1
     7     4    22    1
     8     4    54    1
     9     5    28    2
    10     6     8    1
    11     6    14    1
    12     6    15    1
    13     7     9    1
    14     7    16    1
    15     7    17    1
    16     8    18    2
    17     8    31    1
    18     9    19    2
    19     9    32    1
    20    10    11   ar
    21    10    18    1
    22    10    20   ar
    23    11    25   ar
    24    12    13   ar
    25    12    22   ar
    26    13    19    1
    27    13    21   ar
    28    14    33    1
    29    14    34    1
    30    14    35    1
    31    15    36    1
    32    15    37    1
    33    15    38    1
    34    16    39    1
    35    16    40    1
    36    16    41    1
    37    17    42    1
    38    17    43    1
    39    17    44    1
    40    18    45    1
    41    19    46    1
    42    20    23   ar
    43    21    24   ar
    44    21    47    1
    45    22    26   ar
    46    23    27   ar
    47    23    28    1
    48    24    26   ar
    49    24    29    1
    50    25    27   ar
    51    25    48    1
    52    26    49    1
    53    27    50    1
    54    28    30    1
    55    29    30    2
    56    29    51    1
    57    30    52    1
