@<TRIPOS>MOLECULE
IMPHY017959
 15 15 0 0 0
SMALL
GASTEIGER

@<TRIPOS>ATOM
      1 O           3.8129   -6.7802    0.0000 O.3     1  UNL1       -0.4481
      2 O           6.7187   -6.7802    0.0000 O.2     1  UNL1       -0.2501
      3 C           6.7187   -3.4132    0.0000 C.3     1  UNL1        0.0116
      4 C           5.2581   -4.2588    0.0000 C.3     1  UNL1        0.1096
      5 C           6.7187   -1.7373    0.0000 C.3     1  UNL1        0.0006
      6 C           2.3523   -9.3016    0.0000 C.3     1  UNL1        0.0737
      7 C           3.8129   -8.4560    0.0000 C.3     1  UNL1        0.2131
      8 C           2.3523  -10.9774    0.0000 C.ar    1  UNL1       -0.0184
      9 C           5.2581   -5.9346    0.0000 C.2     1  UNL1        0.3170
     10 C           8.1793   -0.9071    0.0000 C.3     1  UNL1        0.0000
     11 C           3.8129  -11.8077    0.0000 C.ar    1  UNL1       -0.0041
     12 C           0.9071  -11.8077    0.0000 C.ar    1  UNL1       -0.0041
     13 C           3.8129  -13.4989    0.0000 C.ar    1  UNL1       -0.0003
     14 C           0.9071  -13.4989    0.0000 C.ar    1  UNL1       -0.0003
     15 C           2.3523  -14.3291    0.0000 C.ar    1  UNL1       -0.0000
@<TRIPOS>BOND
     1     1     7    1
     2     1     9    1
     3     2     9    2
     4     3     4    1
     5     3     5    1
     6     4     9    1
     7     5    10    1
     8     6     7    1
     9     6     8    1
    10     8    11   ar
    11     8    12   ar
    12    11    13   ar
    13    12    14   ar
    14    13    15   ar
    15    14    15   ar
