@<TRIPOS>MOLECULE
IMPHY017194
 21 22 0 0 0
SMALL
GASTEIGER

@<TRIPOS>ATOM
      1 F           4.2208   -3.0202    0.0000 F       1  UNL1       -0.2055
      2 N           3.7208    2.5186    0.0000 N.ar    1  UNL1       -0.2639
      3 N           4.7208    2.5186    0.0000 N.ar    1  UNL1       -0.1801
      4 N           2.4608    1.2586    0.0000 N.pl3   1  UNL1       -0.3430
      5 C           4.2208    0.9798    0.0000 C.ar    1  UNL1        0.0408
      6 C           4.2208   -0.0202    0.0000 C.ar    1  UNL1       -0.0129
      7 C           3.4118    1.5676    0.0000 C.ar    1  UNL1        0.1193
      8 C           5.0868   -0.5202    0.0000 C.ar    1  UNL1       -0.0512
      9 C           3.3548   -0.5202    0.0000 C.ar    1  UNL1       -0.0512
     10 C           5.0298    1.5676    0.0000 C.ar    1  UNL1        0.0587
     11 C           5.0868   -1.5202    0.0000 C.ar    1  UNL1       -0.0259
     12 C           3.3548   -1.5202    0.0000 C.ar    1  UNL1       -0.0259
     13 C           4.2208   -2.0202    0.0000 C.ar    1  UNL1        0.1234
     14 H           5.6238   -0.2102    0.0000 H       1  UNL1        0.0624
     15 H           2.8179   -0.2102    0.0000 H       1  UNL1        0.0624
     16 H           5.6195    1.3760    0.0000 H       1  UNL1        0.0854
     17 H           3.3564    3.0202    0.0000 H       1  UNL1        0.1903
     18 H           5.6238   -1.8302    0.0000 H       1  UNL1        0.0646
     19 H           2.8179   -1.8302    0.0000 H       1  UNL1        0.0646
     20 H           2.0000    1.6734    0.0000 H       1  UNL1        0.1437
     21 H           2.3318    0.6521    0.0000 H       1  UNL1        0.1437
@<TRIPOS>BOND
     1     1    13    1
     2     2     3   ar
     3     2     7   ar
     4     2    17    1
     5     3    10   ar
     6     4     7    1
     7     4    20    1
     8     4    21    1
     9     5     6    1
    10     5     7   ar
    11     5    10   ar
    12     6     8   ar
    13     6     9   ar
    14     8    11   ar
    15     8    14    1
    16     9    12   ar
    17     9    15    1
    18    10    16    1
    19    11    13   ar
    20    11    18    1
    21    12    13   ar
    22    12    19    1
