@<TRIPOS>MOLECULE
IMPHY005689
 76 81 0 0 0
SMALL
GASTEIGER

@<TRIPOS>ATOM
      1 O           5.5954   -2.4558    0.0000 O.3     1  UNL1       -0.3551
      2 O          12.0027    2.9234    0.0000 O.3     1  UNL1       -0.3915
      3 N           4.6359   -2.9563    0.0000 N.3     1  UNL1       -0.2776
      4 C           6.6628   -0.2210    0.0000 C.3     1  UNL1       -0.0233
      5 C           7.5288   -0.7210    0.0000 C.3     1  UNL1       -0.0296
      6 C           5.9258   -0.8881    0.0000 C.3     1  UNL1       -0.0025
      7 C           6.3309   -1.7958    0.0000 C.3     1  UNL1        0.0649
      8 C           8.3948   -0.2210    0.0000 C.3     1  UNL1       -0.0306
      9 C           7.3196   -1.6928    0.0000 C.3     1  UNL1       -0.0226
     10 C           8.3948    0.7790    0.0000 C.3     1  UNL1       -0.0285
     11 C           4.9434   -0.9948    0.0000 C.3     1  UNL1        0.0048
     12 C           6.6628    0.7790    0.0000 C.3     1  UNL1       -0.0467
     13 C           4.7396   -1.9617    0.0000 C.3     1  UNL1        0.1261
     14 C           7.5288    1.2790    0.0000 C.3     1  UNL1       -0.0486
     15 C           9.2888    1.3137    0.0000 C.3     1  UNL1       -0.0078
     16 C           5.7968    0.2790    0.0000 C.3     1  UNL1       -0.0590
     17 C           9.2888   -0.7556    0.0000 C.3     1  UNL1       -0.0311
     18 C           3.9300   -1.3746    0.0000 C.3     1  UNL1       -0.0093
     19 C          10.1949    0.7998    0.0000 C.2     1  UNL1       -0.0648
     20 C           4.2723   -0.2533    0.0000 C.3     1  UNL1       -0.0582
     21 C           9.2637    2.3984    0.0000 C.3     1  UNL1       -0.0413
     22 C          10.1949   -0.2418    0.0000 C.2     1  UNL1       -0.0839
     23 C           8.4189    1.8070    0.0000 C.3     1  UNL1       -0.0556
     24 C           3.0169   -1.7822    0.0000 C.3     1  UNL1       -0.0454
     25 C          11.1386    1.3351    0.0000 C.3     1  UNL1       -0.0051
     26 C           3.7227   -3.3638    0.0000 C.3     1  UNL1        0.0037
     27 C          10.1949    2.9553    0.0000 C.3     1  UNL1       -0.0258
     28 C           2.9132   -2.7768    0.0000 C.3     1  UNL1       -0.0309
     29 C          11.1386    2.4201    0.0000 C.3     1  UNL1        0.0590
     30 C           5.4454   -3.5434    0.0000 C.3     1  UNL1       -0.0102
     31 C           2.0000   -3.1843    0.0000 C.3     1  UNL1       -0.0612
     32 H           8.2158   -1.2215    0.0000 H       1  UNL1        0.0310
     33 H           5.5777   -0.1126    0.0000 H       1  UNL1        0.0335
     34 H           6.6756   -2.5728    0.0000 H       1  UNL1        0.0600
     35 H           8.3883   -1.0710    0.0000 H       1  UNL1        0.0310
     36 H           7.3187   -2.3128    0.0000 H       1  UNL1        0.0293
     37 H           7.9361   -1.7588    0.0000 H       1  UNL1        0.0293
     38 H           9.1342    0.3597    0.0000 H       1  UNL1        0.0312
     39 H           4.3448   -1.1565    0.0000 H       1  UNL1        0.0343
     40 H           6.4507    1.3616    0.0000 H       1  UNL1        0.0271
     41 H           6.0522    0.6714    0.0000 H       1  UNL1        0.0271
     42 H           7.9274    1.7540    0.0000 H       1  UNL1        0.0268
     43 H           7.1303    1.7540    0.0000 H       1  UNL1        0.0268
     44 H           6.1068    0.8160    0.0000 H       1  UNL1        0.0235
     45 H           5.2598    0.5890    0.0000 H       1  UNL1        0.0235
     46 H           5.4868   -0.2579    0.0000 H       1  UNL1        0.0235
     47 H           8.8842   -1.2254    0.0000 H       1  UNL1        0.0310
     48 H           9.6824   -1.2346    0.0000 H       1  UNL1        0.0310
     49 H           4.3757   -0.9435    0.0000 H       1  UNL1        0.0307
     50 H           3.5829   -0.8609    0.0000 H       1  UNL1        0.0307
     51 H           4.7320    0.1627    0.0000 H       1  UNL1        0.0234
     52 H           3.8562    0.2063    0.0000 H       1  UNL1        0.0234
     53 H           3.8126   -0.6694    0.0000 H       1  UNL1        0.0234
     54 H           9.0412    2.9771    0.0000 H       1  UNL1        0.0274
     55 H           8.6555    2.2782    0.0000 H       1  UNL1        0.0274
     56 H          10.7306   -0.5539    0.0000 H       1  UNL1        0.0572
     57 H           8.7248    2.3463    0.0000 H       1  UNL1        0.0238
     58 H           7.8796    2.1128    0.0000 H       1  UNL1        0.0238
     59 H           8.1131    1.2677    0.0000 H       1  UNL1        0.0238
     60 H           2.8664   -1.1807    0.0000 H       1  UNL1        0.0270
     61 H           2.3984   -1.8259    0.0000 H       1  UNL1        0.0270
     62 H          11.3477    0.7514    0.0000 H       1  UNL1        0.0335
     63 H          11.7495    1.4412    0.0000 H       1  UNL1        0.0335
     64 H           3.2771   -3.7949    0.0000 H       1  UNL1        0.0430
     65 H           4.0699   -3.8776    0.0000 H       1  UNL1        0.0430
     66 H          10.5885    3.4343    0.0000 H       1  UNL1        0.0290
     67 H           9.7903    3.4251    0.0000 H       1  UNL1        0.0290
     68 H           2.4113   -2.4128    0.0000 H       1  UNL1        0.0310
     69 H          11.1351    3.0401    0.0000 H       1  UNL1        0.0596
     70 H           5.0814   -4.0453    0.0000 H       1  UNL1        0.0391
     71 H           5.9473   -3.9074    0.0000 H       1  UNL1        0.0391
     72 H           5.8094   -3.0415    0.0000 H       1  UNL1        0.0391
     73 H           1.7473   -2.6181    0.0000 H       1  UNL1        0.0233
     74 H           1.4338   -3.4370    0.0000 H       1  UNL1        0.0233
     75 H           2.2527   -3.7505    0.0000 H       1  UNL1        0.0233
     76 H          12.0003    3.5434    0.0000 H       1  UNL1        0.2098
@<TRIPOS>BOND
     1     1     7    1
     2    13     1    1
     3    29     2    1
     4     2    76    1
     5     3    13    1
     6     3    26    1
     7     3    30    1
     8     4     5    1
     9     4     6    1
    10     4    12    1
    11     4    16    1
    12     5     8    1
    13     5     9    1
    14     5    32    1
    15     6     7    1
    16     6    11    1
    17     6    33    1
    18     7     9    1
    19     7    34    1
    20     8    10    1
    21     8    17    1
    22     8    35    1
    23     9    36    1
    24     9    37    1
    25    10    14    1
    26    10    15    1
    27    10    38    1
    28    11    13    1
    29    11    20    1
    30    11    39    1
    31    12    14    1
    32    12    40    1
    33    12    41    1
    34    13    18    1
    35    14    42    1
    36    14    43    1
    37    15    19    1
    38    15    21    1
    39    15    23    1
    40    16    44    1
    41    16    45    1
    42    16    46    1
    43    17    22    1
    44    17    47    1
    45    17    48    1
    46    18    24    1
    47    18    49    1
    48    18    50    1
    49    19    22    2
    50    19    25    1
    51    20    51    1
    52    20    52    1
    53    20    53    1
    54    21    27    1
    55    21    54    1
    56    21    55    1
    57    22    56    1
    58    23    57    1
    59    23    58    1
    60    23    59    1
    61    24    28    1
    62    24    60    1
    63    24    61    1
    64    25    29    1
    65    25    62    1
    66    25    63    1
    67    26    28    1
    68    26    64    1
    69    26    65    1
    70    27    29    1
    71    27    66    1
    72    27    67    1
    73    28    31    1
    74    28    68    1
    75    29    69    1
    76    30    70    1
    77    30    71    1
    78    30    72    1
    79    31    73    1
    80    31    74    1
    81    31    75    1
