@<TRIPOS>MOLECULE
IMPHY000886
 68 72 0 0 0
SMALL
GASTEIGER

@<TRIPOS>ATOM
      1 O           8.3867    0.9165    0.0000 O.3     1  UNL1       -0.3455
      2 O           7.2181   -1.9492    0.0000 O.3     1  UNL1       -0.4581
      3 O           9.4661    1.9861    0.0000 O.3     1  UNL1       -0.3623
      4 O           8.1001    2.6201    0.0000 O.3     1  UNL1       -0.3862
      5 O           5.4639    0.1232    0.0000 O.3     1  UNL1       -0.4494
      6 O          10.7504    1.2050    0.0000 O.3     1  UNL1       -0.3834
      7 O           5.4481   -1.9250    0.0000 O.2     1  UNL1       -0.2466
      8 O          12.5852    0.2208    0.0000 O.2     1  UNL1       -0.2899
      9 O           4.5806   -1.3667    0.0000 O.2     1  UNL1       -0.2505
     10 C           8.1001   -0.3799    0.0000 C.3     1  UNL1        0.0466
     11 C           8.9661    0.1201    0.0000 C.3     1  UNL1        0.0357
     12 C           9.8759   -0.3679    0.0000 C.3     1  UNL1        0.0162
     13 C           7.2341    0.1201    0.0000 C.3     1  UNL1        0.0234
     14 C           8.9661    1.1201    0.0000 C.3     1  UNL1        0.1981
     15 C           8.1161   -1.4214    0.0000 C.3     1  UNL1        0.1123
     16 C           9.9002   -1.4000    0.0000 C.3     1  UNL1       -0.0078
     17 C           7.2341    1.1201    0.0000 C.3     1  UNL1       -0.0053
     18 C           7.9867    0.2237    0.0000 C.3     1  UNL1        0.0609
     19 C           8.1001    1.6201    0.0000 C.3     1  UNL1        0.1120
     20 C           9.0144   -1.9303    0.0000 C.3     1  UNL1       -0.0079
     21 C           6.3241   -0.3868    0.0000 C.3     1  UNL1        0.2027
     22 C          10.7855    0.2056    0.0000 C.3     1  UNL1        0.1233
     23 C           9.8524    0.6318    0.0000 C.3     1  UNL1       -0.0558
     24 C          10.8358   -1.9302    0.0000 C.2     1  UNL1       -0.0654
     25 C           6.3680    1.6201    0.0000 C.3     1  UNL1       -0.0595
     26 C           6.3160   -1.4284    0.0000 C.2     1  UNL1        0.3490
     27 C          11.7332   -0.3027    0.0000 C.2     1  UNL1        0.1848
     28 C          11.7585   -1.3778    0.0000 C.2     1  UNL1       -0.0173
     29 C          10.8478   -2.9301    0.0000 C.3     1  UNL1       -0.0431
     30 C           4.5921   -0.3667    0.0000 C.2     1  UNL1        0.3107
     31 C           3.7319    0.1432    0.0000 C.3     1  UNL1        0.0534
     32 C           2.8602   -0.3467    0.0000 C.3     1  UNL1       -0.0432
     33 C           3.7435    1.1432    0.0000 C.3     1  UNL1       -0.0523
     34 C           2.0000    0.1633    0.0000 C.3     1  UNL1       -0.0645
     35 H           9.3911   -0.6160    0.0000 H       1  UNL1        0.0367
     36 H           6.4979    0.5451    0.0000 H       1  UNL1        0.0353
     37 H           8.1229   -2.2714    0.0000 H       1  UNL1        0.0740
     38 H           9.9104   -2.2500    0.0000 H       1  UNL1        0.0353
     39 H           7.2341    1.7401    0.0000 H       1  UNL1        0.0329
     40 H           7.5595    0.6731    0.0000 H       1  UNL1        0.0568
     41 H           7.4347   -0.0587    0.0000 H       1  UNL1        0.0568
     42 H           8.6370    1.9301    0.0000 H       1  UNL1        0.0650
     43 H           8.6210   -2.4095    0.0000 H       1  UNL1        0.0307
     44 H           9.4192   -2.4000    0.0000 H       1  UNL1        0.0307
     45 H           5.7842   -0.6916    0.0000 H       1  UNL1        0.0856
     46 H          11.3119    0.5333    0.0000 H       1  UNL1        0.0682
     47 H          10.4722    0.6464    0.0000 H       1  UNL1        0.0236
     48 H           9.8378    1.2516    0.0000 H       1  UNL1        0.0236
     49 H           9.2325    0.6172    0.0000 H       1  UNL1        0.0236
     50 H           6.6780    2.1570    0.0000 H       1  UNL1        0.0233
     51 H           5.8311    1.9301    0.0000 H       1  UNL1        0.0233
     52 H           6.0580    1.0831    0.0000 H       1  UNL1        0.0233
     53 H           9.1561    2.5230    0.0000 H       1  UNL1        0.2128
     54 H           7.5632    2.9301    0.0000 H       1  UNL1        0.2100
     55 H          12.3015   -1.6772    0.0000 H       1  UNL1        0.0653
     56 H          11.2762    1.5337    0.0000 H       1  UNL1        0.2104
     57 H          10.2279   -2.9375    0.0000 H       1  UNL1        0.0275
     58 H          10.8553   -3.5500    0.0000 H       1  UNL1        0.0275
     59 H          11.4678   -2.9226    0.0000 H       1  UNL1        0.0275
     60 H           4.4729    0.5597    0.0000 H       1  UNL1        0.0410
     61 H           2.4562   -0.8170    0.0000 H       1  UNL1        0.0270
     62 H           3.2532   -0.8262    0.0000 H       1  UNL1        0.0270
     63 H           4.3635    1.1360    0.0000 H       1  UNL1        0.0238
     64 H           3.7507    1.7631    0.0000 H       1  UNL1        0.0238
     65 H           3.1235    1.1504    0.0000 H       1  UNL1        0.0238
     66 H           2.3162    0.6966    0.0000 H       1  UNL1        0.0230
     67 H           1.4667    0.4795    0.0000 H       1  UNL1        0.0230
     68 H           1.6838   -0.3700    0.0000 H       1  UNL1        0.0230
@<TRIPOS>BOND
     1     1    14    1
     2     1    18    1
     3     2    15    1
     4     2    26    1
     5    14     3    1
     6     3    53    1
     7    19     4    1
     8     4    54    1
     9    21     5    1
    10     5    30    1
    11    22     6    1
    12     6    56    1
    13     7    26    2
    14     8    27    2
    15     9    30    2
    16    10    11    1
    17    10    13    1
    18    10    15    1
    19    10    18    1
    20    11    12    1
    21    11    14    1
    22    11    35    1
    23    12    16    1
    24    12    22    1
    25    12    23    1
    26    13    17    1
    27    13    21    1
    28    13    36    1
    29    14    19    1
    30    15    20    1
    31    15    37    1
    32    16    20    1
    33    16    24    1
    34    16    38    1
    35    17    19    1
    36    17    25    1
    37    17    39    1
    38    18    40    1
    39    18    41    1
    40    19    42    1
    41    20    43    1
    42    20    44    1
    43    21    26    1
    44    21    45    1
    45    22    27    1
    46    22    46    1
    47    23    47    1
    48    23    48    1
    49    23    49    1
    50    24    28    2
    51    24    29    1
    52    25    50    1
    53    25    51    1
    54    25    52    1
    55    27    28    1
    56    28    55    1
    57    29    57    1
    58    29    58    1
    59    29    59    1
    60    30    31    1
    61    31    32    1
    62    31    33    1
    63    31    60    1
    64    32    34    1
    65    32    61    1
    66    32    62    1
    67    33    63    1
    68    33    64    1
    69    33    65    1
    70    34    66    1
    71    34    67    1
    72    34    68    1
