@<TRIPOS>MOLECULE
IMPHY015742
 55 62 0 0 0
SMALL
GASTEIGER

@<TRIPOS>ATOM
      1 O           8.9993   -1.3020    0.0000 O.3     1  UNL1       -0.5053
      2 O           2.9389    2.1969    0.0000 O.3     1  UNL1       -0.5053
      3 O           8.1155    3.1814    0.0000 O.3     1  UNL1       -0.5060
      4 O           7.2635    3.6733    0.0000 O.3     1  UNL1       -0.5060
      5 O           9.8538    0.1582    0.0000 O.3     1  UNL1       -0.5059
      6 O           3.7762    3.6671    0.0000 O.3     1  UNL1       -0.5059
      7 O           8.2153   -2.8388    0.0000 O.2     1  UNL1       -0.2871
      8 O           2.0000    0.7496    0.0000 O.2     1  UNL1       -0.2871
      9 O           4.7064   -3.9679    0.0000 O.3     1  UNL1       -0.3904
     10 C           6.3846    0.1672    0.0000 C.ar    1  UNL1        0.0005
     11 C           5.5186    0.6672    0.0000 C.ar    1  UNL1        0.0005
     12 C           6.4007   -0.8743    0.0000 C.ar    1  UNL1        0.0057
     13 C           4.6086    0.1604    0.0000 C.ar    1  UNL1        0.0056
     14 C           7.2507    0.6672    0.0000 C.ar    1  UNL1        0.0088
     15 C           5.5186    1.6672    0.0000 C.ar    1  UNL1        0.0088
     16 C           5.5027   -1.4020    0.0000 C.ar    1  UNL1       -0.0030
     17 C           4.6006   -0.8812    0.0000 C.ar    1  UNL1       -0.0054
     18 C           7.2507    1.6672    0.0000 C.ar    1  UNL1        0.0363
     19 C           6.3846    2.1672    0.0000 C.ar    1  UNL1        0.0363
     20 C           7.2778   -1.3370    0.0000 C.ar    1  UNL1        0.0720
     21 C           3.7693    0.6886    0.0000 C.ar    1  UNL1        0.0720
     22 C           8.1101    0.1725    0.0000 C.ar    1  UNL1        0.0670
     23 C           4.6604    2.1642    0.0000 C.ar    1  UNL1        0.0670
     24 C           8.1236   -0.8192    0.0000 C.ar    1  UNL1        0.1395
     25 C           3.7949    1.6800    0.0000 C.ar    1  UNL1        0.1395
     26 C           5.5287   -2.4435    0.0000 C.2     1  UNL1       -0.0102
     27 C           3.6856   -1.3794    0.0000 C.2     1  UNL1       -0.0385
     28 C           8.1214    2.1814    0.0000 C.ar    1  UNL1        0.1288
     29 C           6.3945    3.1784    0.0000 C.ar    1  UNL1        0.1288
     30 C           7.3280   -2.3776    0.0000 C.2     1  UNL1        0.1905
     31 C           2.8430    0.2118    0.0000 C.2     1  UNL1        0.1904
     32 C           8.9926    0.6664    0.0000 C.ar    1  UNL1        0.1316
     33 C           4.6469    3.1753    0.0000 C.ar    1  UNL1        0.1316
     34 C           6.4475   -2.9346    0.0000 C.2     1  UNL1       -0.0083
     35 C           2.8009   -0.8292    0.0000 C.2     1  UNL1       -0.0107
     36 C           8.9983    1.6776    0.0000 C.ar    1  UNL1        0.0227
     37 C           5.5198    3.6859    0.0000 C.ar    1  UNL1        0.0227
     38 C           4.6775   -2.9683    0.0000 C.3     1  UNL1        0.0699
     39 C           3.6567   -2.3790    0.0000 C.3     1  UNL1       -0.0390
     40 H           6.4702   -3.5542    0.0000 H       1  UNL1        0.0660
     41 H           2.2530   -1.1194    0.0000 H       1  UNL1        0.0659
     42 H           9.5358    1.9866    0.0000 H       1  UNL1        0.0691
     43 H           5.5187    4.3059    0.0000 H       1  UNL1        0.0691
     44 H           4.4487   -2.3921    0.0000 H       1  UNL1        0.0607
     45 H           4.0703   -3.0936    0.0000 H       1  UNL1        0.0607
     46 H           3.0370   -2.3610    0.0000 H       1  UNL1        0.0278
     47 H           3.6388   -2.9987    0.0000 H       1  UNL1        0.0278
     48 H           4.2764   -2.3969    0.0000 H       1  UNL1        0.0278
     49 H           9.0115   -1.9219    0.0000 H       1  UNL1        0.2922
     50 H           2.3960    1.8976    0.0000 H       1  UNL1        0.2922
     51 H           8.6506    3.4946    0.0000 H       1  UNL1        0.2922
     52 H           7.2672    4.2933    0.0000 H       1  UNL1        0.2922
     53 H          10.3937    0.4630    0.0000 H       1  UNL1        0.2922
     54 H           3.7703    4.2871    0.0000 H       1  UNL1        0.2922
     55 H           4.1786   -4.2933    0.0000 H       1  UNL1        0.2098
@<TRIPOS>BOND
     1     1    24    1
     2     1    49    1
     3     2    25    1
     4     2    50    1
     5     3    28    1
     6     3    51    1
     7     4    29    1
     8     4    52    1
     9     5    32    1
    10     5    53    1
    11     6    33    1
    12     6    54    1
    13     7    30    2
    14     8    31    2
    15     9    38    1
    16     9    55    1
    17    10    11   ar
    18    10    12   ar
    19    10    14   ar
    20    11    13   ar
    21    11    15   ar
    22    12    16   ar
    23    12    20   ar
    24    13    17   ar
    25    13    21   ar
    26    14    18   ar
    27    14    22   ar
    28    15    19   ar
    29    15    23   ar
    30    16    17   ar
    31    16    26    1
    32    17    27    1
    33    18    19   ar
    34    18    28   ar
    35    19    29   ar
    36    20    24   ar
    37    20    30    1
    38    21    25   ar
    39    21    31    1
    40    22    24   ar
    41    22    32   ar
    42    23    25   ar
    43    23    33   ar
    44    26    34    2
    45    26    38    1
    46    27    35    2
    47    27    39    1
    48    28    36   ar
    49    29    37   ar
    50    30    34    1
    51    31    35    1
    52    32    36   ar
    53    33    37   ar
    54    34    40    1
    55    35    41    1
    56    36    42    1
    57    37    43    1
    58    38    44    1
    59    38    45    1
    60    39    46    1
    61    39    47    1
    62    39    48    1
