@<TRIPOS>MOLECULE
IMPHY002268
 67 73 0 0 0
SMALL
GASTEIGER

@<TRIPOS>ATOM
      1 O           8.8485   -2.2622    0.0000 O.3     1  UNL1       -0.3477
      2 O           6.5080   -1.7620    0.0000 O.3     1  UNL1       -0.4500
      3 O           6.3790   -0.5950    0.0000 O.3     1  UNL1       -0.3764
      4 O           8.9770    0.9050    0.0000 O.3     1  UNL1       -0.3746
      5 O           9.9618    0.0787    0.0000 O.2     1  UNL1       -0.2934
      6 O           8.9988    1.9365    0.0000 O.3     1  UNL1       -0.4532
      7 O           6.4131   -3.5358    0.0000 O.2     1  UNL1       -0.2478
      8 O           4.4603    0.3758    0.0000 O.3     1  UNL1       -0.4522
      9 O           5.4274   -1.1520    0.0000 O.2     1  UNL1       -0.2452
     10 O           8.1502    3.4464    0.0000 O.2     1  UNL1       -0.2511
     11 O           2.0000    2.2877    0.0000 O.2     1  UNL1       -0.4706
     12 C           8.1110   -1.5950    0.0000 C.3     1  UNL1        0.1610
     13 C           7.2450   -1.0950    0.0000 C.3     1  UNL1        0.1793
     14 C           8.9770   -1.0950    0.0000 C.3     1  UNL1        0.0623
     15 C           7.9018   -2.5668    0.0000 C.3     1  UNL1        0.1894
     16 C           7.2450   -0.0950    0.0000 C.3     1  UNL1        0.1792
     17 C           8.1110    0.4050    0.0000 C.3     1  UNL1        0.2021
     18 C           8.9770   -0.0950    0.0000 C.2     1  UNL1        0.1805
     19 C           6.9131   -2.6698    0.0000 C.2     1  UNL1        0.3401
     20 C           6.3350    0.4119    0.0000 C.2     1  UNL1        0.0793
     21 C           6.5950    0.0309    0.0000 C.3     1  UNL1       -0.0187
     22 C           8.1271    1.4466    0.0000 C.3     1  UNL1        0.1667
     23 C           9.9770   -1.0950    0.0000 C.3     1  UNL1       -0.0501
     24 C           9.4770   -1.9610    0.0000 C.3     1  UNL1       -0.0501
     25 C           6.3270    1.4535    0.0000 C.2     1  UNL1       -0.0182
     26 C           7.2290    1.9743    0.0000 C.2     1  UNL1       -0.0034
     27 C           5.3915    2.0032    0.0000 C.3     1  UNL1        0.0355
     28 C           5.4082   -0.1522    0.0000 C.2     1  UNL1        0.3391
     29 C           4.4519    1.4607    0.0000 C.3     1  UNL1        0.1405
     30 C           5.4269    3.0379    0.0000 C.3     1  UNL1       -0.0364
     31 C           7.2262    3.0096    0.0000 C.2     1  UNL1       -0.0769
     32 C           6.3346    3.5358    0.0000 C.3     1  UNL1       -0.0332
     33 C           4.5274    2.5066    0.0000 C.3     1  UNL1       -0.0518
     34 C           3.5840    1.9574    0.0000 C.ar    1  UNL1        0.0313
     35 C           9.0104    2.9364    0.0000 C.2     1  UNL1        0.3046
     36 C           3.4756    2.9515    0.0000 C.ar    1  UNL1       -0.0172
     37 C           2.6720    1.5471    0.0000 C.ar    1  UNL1        0.0984
     38 C           9.8821    3.4264    0.0000 C.3     1  UNL1        0.0333
     39 C           2.4967    3.1556    0.0000 C.ar    1  UNL1        0.0921
     40 H           8.0770   -3.3985    0.0000 H       1  UNL1        0.0745
     41 H           7.1319    0.3409    0.0000 H       1  UNL1        0.0270
     42 H           6.2850    0.5678    0.0000 H       1  UNL1        0.0270
     43 H           6.0581   -0.2791    0.0000 H       1  UNL1        0.0270
     44 H           8.1331    2.0665    0.0000 H       1  UNL1        0.0820
     45 H           9.9770   -1.7150    0.0000 H       1  UNL1        0.0240
     46 H          10.5970   -1.0950    0.0000 H       1  UNL1        0.0240
     47 H           9.9770   -0.4750    0.0000 H       1  UNL1        0.0240
     48 H           8.9401   -2.2710    0.0000 H       1  UNL1        0.0240
     49 H           9.7870   -2.4979    0.0000 H       1  UNL1        0.0240
     50 H          10.0140   -1.6510    0.0000 H       1  UNL1        0.0240
     51 H           6.0691   -1.1319    0.0000 H       1  UNL1        0.2109
     52 H           9.5596    1.1171    0.0000 H       1  UNL1        0.2110
     53 H           3.9168    1.1476    0.0000 H       1  UNL1        0.0795
     54 H           5.2301    3.6258    0.0000 H       1  UNL1        0.0278
     55 H           4.8134    2.9487    0.0000 H       1  UNL1        0.0278
     56 H           7.7642    3.3178    0.0000 H       1  UNL1        0.0576
     57 H           6.7396    4.0053    0.0000 H       1  UNL1        0.0308
     58 H           5.9446    4.0178    0.0000 H       1  UNL1        0.0308
     59 H           4.8395    3.0423    0.0000 H       1  UNL1        0.0239
     60 H           3.9917    2.8186    0.0000 H       1  UNL1        0.0239
     61 H           4.2154    1.9708    0.0000 H       1  UNL1        0.0239
     62 H           3.9348    3.3681    0.0000 H       1  UNL1        0.0653
     63 H           2.5454    0.9402    0.0000 H       1  UNL1        0.1033
     64 H          10.1859    2.8859    0.0000 H       1  UNL1        0.0342
     65 H          10.4226    3.7302    0.0000 H       1  UNL1        0.0342
     66 H           9.5784    3.9669    0.0000 H       1  UNL1        0.0342
     67 H           2.2423    3.7210    0.0000 H       1  UNL1        0.1029
@<TRIPOS>BOND
     1    12     1    1
     2     1    15    1
     3     2    13    1
     4     2    19    1
     5    16     3    1
     6     3    51    1
     7    17     4    1
     8     4    52    1
     9     5    18    2
    10    22     6    1
    11     6    35    1
    12     7    19    2
    13     8    28    1
    14     8    29    1
    15     9    28    2
    16    10    35    2
    17    11    37   ar
    18    11    39   ar
    19    12    13    1
    20    12    14    1
    21    12    15    1
    22    13    16    1
    23    13    21    1
    24    14    18    1
    25    14    23    1
    26    14    24    1
    27    15    19    1
    28    15    40    1
    29    16    17    1
    30    16    20    1
    31    17    18    1
    32    17    22    1
    33    20    25    2
    34    20    28    1
    35    21    41    1
    36    21    42    1
    37    21    43    1
    38    22    26    1
    39    22    44    1
    40    23    45    1
    41    23    46    1
    42    23    47    1
    43    24    48    1
    44    24    49    1
    45    24    50    1
    46    25    26    1
    47    25    27    1
    48    26    31    2
    49    27    29    1
    50    27    30    1
    51    27    33    1
    52    29    34    1
    53    29    53    1
    54    30    32    1
    55    30    54    1
    56    30    55    1
    57    31    32    1
    58    31    56    1
    59    32    57    1
    60    32    58    1
    61    33    59    1
    62    33    60    1
    63    33    61    1
    64    34    36   ar
    65    34    37   ar
    66    35    38    1
    67    36    39   ar
    68    36    62    1
    69    37    63    1
    70    38    64    1
    71    38    65    1
    72    38    66    1
    73    39    67    1
