@<TRIPOS>MOLECULE
IMPHY004346
 43 46 0 0 0
SMALL
GASTEIGER

@<TRIPOS>ATOM
      1 O          10.4597   -1.6014    0.0000 O.3     1  UNL1       -0.4834
      2 O          12.1917    0.3986    0.0000 O.3     1  UNL1       -0.3875
      3 O           6.0693    1.9260    0.0000 O.2     1  UNL1       -0.4620
      4 O           6.0578   -1.0740    0.0000 O.2     1  UNL1       -0.2864
      5 O           2.5393    1.9638    0.0000 O.3     1  UNL1       -0.5066
      6 C          11.3257   -1.1014    0.0000 C.3     1  UNL1        0.1310
      7 C          11.3257   -0.1014    0.0000 C.3     1  UNL1        0.0983
      8 C          10.4597    0.3986    0.0000 C.3     1  UNL1        0.0057
      9 C           9.5936   -0.1014    0.0000 C.ar    1  UNL1       -0.0025
     10 C           9.5936   -1.1014    0.0000 C.ar    1  UNL1        0.1247
     11 C          12.3257   -1.1014    0.0000 C.3     1  UNL1       -0.0227
     12 C          11.8257   -1.9675    0.0000 C.3     1  UNL1       -0.0227
     13 C           8.6997    0.4332    0.0000 C.ar    1  UNL1       -0.0471
     14 C           8.6997   -1.6361    0.0000 C.ar    1  UNL1       -0.0191
     15 C           7.7936   -0.0806    0.0000 C.ar    1  UNL1       -0.0108
     16 C           7.7936   -1.1223    0.0000 C.ar    1  UNL1       -0.0503
     17 C           6.9296    0.4227    0.0000 C.ar    1  UNL1        0.0643
     18 C           6.0616   -0.0740    0.0000 C.ar    1  UNL1        0.2001
     19 C           6.9334    1.4227    0.0000 C.ar    1  UNL1        0.1038
     20 C           5.1975    0.4294    0.0000 C.ar    1  UNL1        0.0648
     21 C           5.2014    1.4294    0.0000 C.ar    1  UNL1        0.1419
     22 C           4.3015   -0.1018    0.0000 C.ar    1  UNL1       -0.0439
     23 C           4.3095    1.9675    0.0000 C.ar    1  UNL1        0.0228
     24 C           3.3974    0.4155    0.0000 C.ar    1  UNL1       -0.0193
     25 C           3.4014    1.4571    0.0000 C.ar    1  UNL1        0.1204
     26 H          11.3257    0.5186    0.0000 H       1  UNL1        0.0636
     27 H          10.8582    0.8735    0.0000 H       1  UNL1        0.0341
     28 H          10.0612    0.8735    0.0000 H       1  UNL1        0.0341
     29 H          12.3257   -1.7214    0.0000 H       1  UNL1        0.0269
     30 H          11.2888   -2.2775    0.0000 H       1  UNL1        0.0269
     31 H          12.1357   -2.5044    0.0000 H       1  UNL1        0.0269
     32 H          12.3626   -1.6575    0.0000 H       1  UNL1        0.0269
     33 H          12.9457   -1.1014    0.0000 H       1  UNL1        0.0269
     34 H          12.3257   -0.4814    0.0000 H       1  UNL1        0.0269
     35 H           8.7069    1.0532    0.0000 H       1  UNL1        0.0628
     36 H           8.7069   -2.2561    0.0000 H       1  UNL1        0.0654
     37 H          12.1917    1.0186    0.0000 H       1  UNL1        0.2100
     38 H           7.2579   -1.4343    0.0000 H       1  UNL1        0.0625
     39 H           7.4715    1.7306    0.0000 H       1  UNL1        0.1037
     40 H           4.3063   -0.7218    0.0000 H       1  UNL1        0.0627
     41 H           4.3190    2.5874    0.0000 H       1  UNL1        0.0691
     42 H           2.8605    0.1055    0.0000 H       1  UNL1        0.0654
     43 H           2.0000    1.6579    0.0000 H       1  UNL1        0.2921
@<TRIPOS>BOND
     1     1     6    1
     2     1    10    1
     3     2     7    1
     4     2    37    1
     5     3    19   ar
     6     3    21   ar
     7     4    18    2
     8     5    25    1
     9     5    43    1
    10     6     7    1
    11     6    11    1
    12     6    12    1
    13     7     8    1
    14     7    26    1
    15     8     9    1
    16     8    27    1
    17     8    28    1
    18     9    10   ar
    19     9    13   ar
    20    10    14   ar
    21    11    29    1
    22    11    33    1
    23    11    34    1
    24    12    30    1
    25    12    31    1
    26    12    32    1
    27    13    15   ar
    28    13    35    1
    29    14    16   ar
    30    14    36    1
    31    15    16   ar
    32    15    17    1
    33    16    38    1
    34    17    18   ar
    35    17    19   ar
    36    18    20   ar
    37    19    39    1
    38    20    21   ar
    39    20    22   ar
    40    21    23   ar
    41    22    24   ar
    42    22    40    1
    43    23    25   ar
    44    23    41    1
    45    24    25   ar
    46    24    42    1
