@<TRIPOS>MOLECULE
IMPHY014331
 31 33 0 0 0
SMALL
GASTEIGER

@<TRIPOS>ATOM
      1 O           6.0682   -0.9254    0.0000 O.2     1  UNL1       -0.4507
      2 O           4.3198    2.1092    0.0000 O.3     1  UNL1       -0.5027
      3 O           7.8003    1.0746    0.0000 O.3     1  UNL1       -0.5007
      4 O           2.5381    1.0988    0.0000 O.3     1  UNL1       -0.5009
      5 O           6.0682    2.0746    0.0000 O.2     1  UNL1       -0.2830
      6 O           2.5381   -0.9495    0.0000 O.3     1  UNL1       -0.5031
      7 C           5.2022    0.5746    0.0000 C.ar    1  UNL1        0.1128
      8 C           5.2022   -0.4254    0.0000 C.ar    1  UNL1        0.1468
      9 C           6.9343   -0.4254    0.0000 C.ar    1  UNL1        0.1806
     10 C           6.0682    1.0746    0.0000 C.ar    1  UNL1        0.2380
     11 C           4.3083    1.1093    0.0000 C.ar    1  UNL1        0.1767
     12 C           6.9343    0.5746    0.0000 C.ar    1  UNL1        0.2082
     13 C           7.8003   -0.9254    0.0000 C.ar    1  UNL1        0.0211
     14 C           4.3083   -0.9601    0.0000 C.ar    1  UNL1        0.0268
     15 C           3.4022    0.5954    0.0000 C.ar    1  UNL1        0.2015
     16 C           3.4022   -0.4462    0.0000 C.ar    1  UNL1        0.1655
     17 C           7.8003   -1.9254    0.0000 C.ar    1  UNL1       -0.0510
     18 C           8.6663   -0.4254    0.0000 C.ar    1  UNL1       -0.0510
     19 C           8.6663   -2.4254    0.0000 C.ar    1  UNL1       -0.0611
     20 C           9.5323   -0.9254    0.0000 C.ar    1  UNL1       -0.0611
     21 C           9.5323   -1.9254    0.0000 C.ar    1  UNL1       -0.0617
     22 H           4.3154   -1.5800    0.0000 H       1  UNL1        0.0692
     23 H           7.2634   -2.2354    0.0000 H       1  UNL1        0.0625
     24 H           8.6663    0.1946    0.0000 H       1  UNL1        0.0625
     25 H           8.6663   -3.0454    0.0000 H       1  UNL1        0.0618
     26 H          10.0693   -0.6154    0.0000 H       1  UNL1        0.0618
     27 H          10.0693   -2.2354    0.0000 H       1  UNL1        0.0618
     28 H           3.7865    2.4254    0.0000 H       1  UNL1        0.2923
     29 H           7.8003    1.6946    0.0000 H       1  UNL1        0.2924
     30 H           2.0000    0.7908    0.0000 H       1  UNL1        0.2924
     31 H           2.5405   -1.5695    0.0000 H       1  UNL1        0.2923
@<TRIPOS>BOND
     1     1     8   ar
     2     1     9   ar
     3     2    11    1
     4     2    28    1
     5     3    12    1
     6     3    29    1
     7     4    15    1
     8     4    30    1
     9     5    10    2
    10     6    16    1
    11     6    31    1
    12     7     8   ar
    13     7    10   ar
    14     7    11   ar
    15     8    14   ar
    16     9    12   ar
    17     9    13    1
    18    10    12   ar
    19    11    15   ar
    20    13    17   ar
    21    13    18   ar
    22    14    16   ar
    23    14    22    1
    24    15    16   ar
    25    17    19   ar
    26    17    23    1
    27    18    20   ar
    28    18    24    1
    29    19    21   ar
    30    19    25    1
    31    20    21   ar
    32    20    26    1
    33    21    27    1
