@<TRIPOS>MOLECULE
IMPHY003894
 144 152 0 0 0
SMALL
GASTEIGER

@<TRIPOS>ATOM
      1 O           7.5126    8.4102    0.0000 O.3     1  UNL1       -0.3877
      2 O          11.1364    4.2798    0.0000 O.3     1  UNL1       -0.3480
      3 O           2.4576    8.0235    0.0000 O.3     1  UNL1       -0.4571
      4 O          12.0024    2.7798    0.0000 O.3     1  UNL1       -0.3456
      5 O           2.0000    6.3012    0.0000 O.2     1  UNL1       -0.2456
      6 O           9.4043    1.2798    0.0000 O.3     1  UNL1       -0.3890
      7 O          11.1364    0.2798    0.0000 O.3     1  UNL1       -0.3429
      8 O          12.8684    0.2798    0.0000 O.3     1  UNL1       -0.3456
      9 O          14.6005   -1.7202    0.0000 O.3     1  UNL1       -0.3429
     10 O          12.8684   -2.7202    0.0000 O.3     1  UNL1       -0.3890
     11 O          13.7345   -3.2202    0.0000 O.3     1  UNL1       -0.3456
     12 O          14.6005   -5.7202    0.0000 O.3     1  UNL1       -0.3392
     13 O          16.3325   -4.7202    0.0000 O.3     1  UNL1       -0.4587
     14 O          12.8684   -5.7202    0.0000 O.3     1  UNL1       -0.3405
     15 O          14.6005   -7.7202    0.0000 O.3     1  UNL1       -0.3841
     16 O          12.8684   -8.7202    0.0000 O.3     1  UNL1       -0.3864
     17 O          11.1364   -7.7202    0.0000 O.3     1  UNL1       -0.3865
     18 O          10.2704   -6.2202    0.0000 O.3     1  UNL1       -0.3924
     19 O          17.1986   -3.2202    0.0000 O.2     1  UNL1       -0.2512
     20 C           6.6485    7.9069    0.0000 C.3     1  UNL1        0.0751
     21 C           7.5164    7.4102    0.0000 C.3     1  UNL1       -0.0083
     22 C           7.5203    6.4102    0.0000 C.3     1  UNL1       -0.0299
     23 C           5.7844    7.4036    0.0000 C.3     1  UNL1        0.0036
     24 C           8.4163    5.8790    0.0000 C.3     1  UNL1       -0.0259
     25 C           9.3203    6.3964    0.0000 C.3     1  UNL1       -0.0330
     26 C           6.6562    5.9069    0.0000 C.3     1  UNL1       -0.0488
     27 C           5.7882    6.4036    0.0000 C.3     1  UNL1       -0.0442
     28 C           5.0448    8.0678    0.0000 C.3     1  UNL1       -0.0081
     29 C           8.4083    7.9483    0.0000 C.3     1  UNL1       -0.0470
     30 C           6.4355    8.8779    0.0000 C.3     1  UNL1       -0.0226
     31 C           9.3163    7.4380    0.0000 C.3     1  UNL1       -0.0493
     32 C           5.4464    8.9771    0.0000 C.3     1  UNL1       -0.0432
     33 C           8.3954    4.7942    0.0000 C.3     1  UNL1       -0.0448
     34 C          10.2662    5.8648    0.0000 C.3     1  UNL1       -0.0232
     35 C           4.9203    6.9002    0.0000 C.3     1  UNL1       -0.0564
     36 C           7.5483    5.3824    0.0000 C.3     1  UNL1       -0.0590
     37 C           9.3286    4.2409    0.0000 C.3     1  UNL1       -0.0260
     38 C          10.2704    4.7798    0.0000 C.3     1  UNL1        0.0620
     39 C           4.0671    7.8578    0.0000 C.2     1  UNL1       -0.0222
     40 C           3.3225    8.5254    0.0000 C.3     1  UNL1        0.1147
     41 C           3.6623    6.9434    0.0000 C.2     1  UNL1        0.0252
     42 C          11.1364    3.2798    0.0000 C.3     1  UNL1        0.1624
     43 C           2.6676    7.0458    0.0000 C.2     1  UNL1        0.3323
     44 C          10.2704    2.7798    0.0000 C.3     1  UNL1        0.0270
     45 C          10.2704    1.7798    0.0000 C.3     1  UNL1        0.0884
     46 C          12.0024    1.7798    0.0000 C.3     1  UNL1        0.0875
     47 C          11.1364    1.2798    0.0000 C.3     1  UNL1        0.1134
     48 C          12.8684    1.2798    0.0000 C.3     1  UNL1       -0.0361
     49 C          12.0024   -0.2202    0.0000 C.3     1  UNL1        0.1626
     50 C          12.0024   -1.2202    0.0000 C.3     1  UNL1        0.0270
     51 C          12.8684   -1.7202    0.0000 C.3     1  UNL1        0.0884
     52 C          13.7345   -0.2202    0.0000 C.3     1  UNL1        0.0875
     53 C          13.7345   -1.2202    0.0000 C.3     1  UNL1        0.1134
     54 C          14.6005    0.2798    0.0000 C.3     1  UNL1       -0.0361
     55 C          14.6005   -2.7202    0.0000 C.3     1  UNL1        0.1636
     56 C          15.4665   -3.2202    0.0000 C.3     1  UNL1        0.0382
     57 C          15.4665   -4.2202    0.0000 C.3     1  UNL1        0.1361
     58 C          14.6005   -4.7202    0.0000 C.3     1  UNL1        0.1245
     59 C          13.7345   -4.2202    0.0000 C.3     1  UNL1        0.0885
     60 C          12.8684   -4.7202    0.0000 C.3     1  UNL1       -0.0360
     61 C          13.7345   -6.2202    0.0000 C.3     1  UNL1        0.1885
     62 C          13.7345   -7.2202    0.0000 C.3     1  UNL1        0.1341
     63 C          12.8684   -7.7202    0.0000 C.3     1  UNL1        0.1141
     64 C          12.0024   -7.2202    0.0000 C.3     1  UNL1        0.1119
     65 C          12.0024   -6.2202    0.0000 C.3     1  UNL1        0.1130
     66 C          17.1986   -4.2202    0.0000 C.2     1  UNL1        0.3043
     67 C          11.1364   -5.7202    0.0000 C.3     1  UNL1        0.0730
     68 C          18.0646   -4.7202    0.0000 C.3     1  UNL1        0.0332
     69 H           8.2574    6.9938    0.0000 H       1  UNL1        0.0331
     70 H           8.2580    6.8324    0.0000 H       1  UNL1        0.0310
     71 H          10.0532    6.8270    0.0000 H       1  UNL1        0.0307
     72 H           6.2595    5.4304    0.0000 H       1  UNL1        0.0268
     73 H           7.0565    5.4335    0.0000 H       1  UNL1        0.0268
     74 H           5.1772    6.5089    0.0000 H       1  UNL1        0.0272
     75 H           5.5784    5.8201    0.0000 H       1  UNL1        0.0272
     76 H           4.6534    8.5486    0.0000 H       1  UNL1        0.0353
     77 H           8.8001    8.4289    0.0000 H       1  UNL1        0.0269
     78 H           8.0019    8.4166    0.0000 H       1  UNL1        0.0269
     79 H           7.0517    8.9463    0.0000 H       1  UNL1        0.0293
     80 H           6.4322    9.4979    0.0000 H       1  UNL1        0.0293
     81 H           9.9276    7.3342    0.0000 H       1  UNL1        0.0268
     82 H           9.5231    8.0225    0.0000 H       1  UNL1        0.0268
     83 H           5.5728    9.5841    0.0000 H       1  UNL1        0.0272
     84 H           4.8561    9.1666    0.0000 H       1  UNL1        0.0272
     85 H           7.7866    4.9121    0.0000 H       1  UNL1        0.0271
     86 H           8.1751    4.2147    0.0000 H       1  UNL1        0.0271
     87 H          10.8774    5.7610    0.0000 H       1  UNL1        0.0293
     88 H          10.4730    6.4493    0.0000 H       1  UNL1        0.0293
     89 H           4.6082    7.4360    0.0000 H       1  UNL1        0.0236
     90 H           4.3845    6.5882    0.0000 H       1  UNL1        0.0236
     91 H           5.2324    6.3645    0.0000 H       1  UNL1        0.0236
     92 H           7.2404    5.9205    0.0000 H       1  UNL1        0.0235
     93 H           7.0102    5.0744    0.0000 H       1  UNL1        0.0235
     94 H           7.8562    4.8442    0.0000 H       1  UNL1        0.0235
     95 H           8.9259    3.7696    0.0000 H       1  UNL1        0.0290
     96 H           9.7241    3.7634    0.0000 H       1  UNL1        0.0290
     97 H          10.8067    5.0908    0.0000 H       1  UNL1        0.0597
     98 H           7.5102    9.0302    0.0000 H       1  UNL1        0.2102
     99 H           3.7824    8.9412    0.0000 H       1  UNL1        0.0746
    100 H           2.9570    9.0262    0.0000 H       1  UNL1        0.0746
    101 H           3.9734    6.4071    0.0000 H       1  UNL1        0.0689
    102 H          10.5995    3.5898    0.0000 H       1  UNL1        0.0910
    103 H          10.0583    3.3624    0.0000 H       1  UNL1        0.0340
    104 H           9.6598    2.6721    0.0000 H       1  UNL1        0.0340
    105 H           9.7334    2.0898    0.0000 H       1  UNL1        0.0622
    106 H          12.5394    2.0898    0.0000 H       1  UNL1        0.0621
    107 H          10.5995    0.9698    0.0000 H       1  UNL1        0.0649
    108 H          12.5584    0.7428    0.0000 H       1  UNL1        0.0255
    109 H          13.4054    0.9698    0.0000 H       1  UNL1        0.0255
    110 H          13.1784    1.8167    0.0000 H       1  UNL1        0.0255
    111 H           8.8674    1.5898    0.0000 H       1  UNL1        0.2099
    112 H          12.0024    0.3998    0.0000 H       1  UNL1        0.0910
    113 H          11.3918   -1.1126    0.0000 H       1  UNL1        0.0340
    114 H          11.7904   -1.8028    0.0000 H       1  UNL1        0.0340
    115 H          12.3315   -2.0302    0.0000 H       1  UNL1        0.0622
    116 H          13.7345    0.3998    0.0000 H       1  UNL1        0.0621
    117 H          14.2714   -0.9102    0.0000 H       1  UNL1        0.0649
    118 H          14.9105   -0.2572    0.0000 H       1  UNL1        0.0255
    119 H          15.1374    0.5898    0.0000 H       1  UNL1        0.0255
    120 H          14.2905    0.8167    0.0000 H       1  UNL1        0.0255
    121 H          12.3315   -3.0302    0.0000 H       1  UNL1        0.2099
    122 H          14.0636   -2.4102    0.0000 H       1  UNL1        0.0911
    123 H          16.0771   -3.3279    0.0000 H       1  UNL1        0.0351
    124 H          15.6786   -2.6376    0.0000 H       1  UNL1        0.0351
    125 H          16.0035   -3.9102    0.0000 H       1  UNL1        0.0763
    126 H          14.0636   -5.0302    0.0000 H       1  UNL1        0.0660
    127 H          13.1975   -3.9102    0.0000 H       1  UNL1        0.0621
    128 H          14.2714   -6.5302    0.0000 H       1  UNL1        0.0938
    129 H          12.5584   -4.1833    0.0000 H       1  UNL1        0.0255
    130 H          12.3315   -5.0302    0.0000 H       1  UNL1        0.0255
    131 H          13.1784   -5.2572    0.0000 H       1  UNL1        0.0255
    132 H          13.7345   -7.8402    0.0000 H       1  UNL1        0.0671
    133 H          13.4054   -8.0302    0.0000 H       1  UNL1        0.0648
    134 H          12.0024   -7.8402    0.0000 H       1  UNL1        0.0647
    135 H          12.0024   -5.6002    0.0000 H       1  UNL1        0.0647
    136 H          11.5349   -5.2453    0.0000 H       1  UNL1        0.0584
    137 H          10.7379   -5.2453    0.0000 H       1  UNL1        0.0584
    138 H          15.1374   -7.4102    0.0000 H       1  UNL1        0.2101
    139 H          13.4054   -9.0302    0.0000 H       1  UNL1        0.2100
    140 H          11.1364   -8.3402    0.0000 H       1  UNL1        0.2100
    141 H          17.7546   -5.2572    0.0000 H       1  UNL1        0.0342
    142 H          18.6015   -5.0302    0.0000 H       1  UNL1        0.0342
    143 H          18.3746   -4.1833    0.0000 H       1  UNL1        0.0342
    144 H           9.7334   -5.9102    0.0000 H       1  UNL1        0.2095
@<TRIPOS>BOND
     1    20     1    1
     2     1    98    1
     3    38     2    1
     4    42     2    1
     5     3    40    1
     6     3    43    1
     7     4    42    1
     8     4    46    1
     9     5    43    2
    10    45     6    1
    11     6   111    1
    12    47     7    1
    13    49     7    1
    14     8    49    1
    15     8    52    1
    16    53     9    1
    17    55     9    1
    18    51    10    1
    19    10   121    1
    20    11    55    1
    21    11    59    1
    22    58    12    1
    23    61    12    1
    24    57    13    1
    25    13    66    1
    26    14    61    1
    27    14    65    1
    28    62    15    1
    29    15   138    1
    30    63    16    1
    31    16   139    1
    32    64    17    1
    33    17   140    1
    34    18    67    1
    35    18   144    1
    36    19    66    2
    37    20    21    1
    38    20    23    1
    39    20    30    1
    40    21    22    1
    41    21    29    1
    42    21    69    1
    43    22    24    1
    44    22    26    1
    45    22    70    1
    46    23    27    1
    47    23    28    1
    48    23    35    1
    49    24    25    1
    50    24    33    1
    51    24    36    1
    52    25    31    1
    53    25    34    1
    54    25    71    1
    55    26    27    1
    56    26    72    1
    57    26    73    1
    58    27    74    1
    59    27    75    1
    60    28    32    1
    61    28    39    1
    62    28    76    1
    63    29    31    1
    64    29    77    1
    65    29    78    1
    66    30    32    1
    67    30    79    1
    68    30    80    1
    69    31    81    1
    70    31    82    1
    71    32    83    1
    72    32    84    1
    73    33    37    1
    74    33    85    1
    75    33    86    1
    76    34    38    1
    77    34    87    1
    78    34    88    1
    79    35    89    1
    80    35    90    1
    81    35    91    1
    82    36    92    1
    83    36    93    1
    84    36    94    1
    85    37    38    1
    86    37    95    1
    87    37    96    1
    88    38    97    1
    89    39    40    1
    90    39    41    2
    91    40    99    1
    92    40   100    1
    93    41    43    1
    94    41   101    1
    95    42    44    1
    96    42   102    1
    97    44    45    1
    98    44   103    1
    99    44   104    1
   100    45    47    1
   101    45   105    1
   102    46    47    1
   103    46    48    1
   104    46   106    1
   105    47   107    1
   106    48   108    1
   107    48   109    1
   108    48   110    1
   109    49    50    1
   110    49   112    1
   111    50    51    1
   112    50   113    1
   113    50   114    1
   114    51    53    1
   115    51   115    1
   116    52    53    1
   117    52    54    1
   118    52   116    1
   119    53   117    1
   120    54   118    1
   121    54   119    1
   122    54   120    1
   123    55    56    1
   124    55   122    1
   125    56    57    1
   126    56   123    1
   127    56   124    1
   128    57    58    1
   129    57   125    1
   130    58    59    1
   131    58   126    1
   132    59    60    1
   133    59   127    1
   134    60   129    1
   135    60   130    1
   136    60   131    1
   137    61    62    1
   138    61   128    1
   139    62    63    1
   140    62   132    1
   141    63    64    1
   142    63   133    1
   143    64    65    1
   144    64   134    1
   145    65    67    1
   146    65   135    1
   147    66    68    1
   148    67   136    1
   149    67   137    1
   150    68   141    1
   151    68   142    1
   152    68   143    1
