@<TRIPOS>MOLECULE
IMPHY010230
 45 48 0 0 0
SMALL
GASTEIGER

@<TRIPOS>ATOM
      1 O           6.2621   -2.5002    0.0000 O.3     1  UNL1       -0.3612
      2 O           7.9942    0.5007    0.0000 O.3     1  UNL1       -0.3649
      3 O           3.5836   -1.8045    0.0000 O.3     1  UNL1       -0.4546
      4 O           5.3958    1.0002    0.0000 O.3     1  UNL1       -0.4607
      5 O           2.0000   -0.9998    0.0000 O.2     1  UNL1       -0.2453
      6 O           7.1279    1.0002    0.0000 O.2     1  UNL1       -0.2512
      7 C           6.2619   -1.4998    0.0000 C.3     1  UNL1        0.0970
      8 C           5.3958   -1.9998    0.0000 C.3     1  UNL1        0.1255
      9 C           7.1279    0.0002    0.0000 C.3     1  UNL1        0.0966
     10 C           7.9939   -0.4998    0.0000 C.3     1  UNL1        0.0883
     11 C           4.5298   -1.4998    0.0000 C.3     1  UNL1        0.1424
     12 C           7.1279   -1.9998    0.0000 C.3     1  UNL1       -0.0190
     13 C           7.9939   -1.4998    0.0000 C.3     1  UNL1       -0.0212
     14 C           4.5298   -0.4998    0.0000 C.3     1  UNL1        0.0670
     15 C           6.2619   -0.4998    0.0000 C.3     1  UNL1        0.0164
     16 C           5.3958    0.0002    0.0000 C.3     1  UNL1        0.1162
     17 C           7.1279   -0.9998    0.0000 C.3     1  UNL1       -0.0332
     18 C           6.2619    0.5002    0.0000 C.3     1  UNL1       -0.0332
     19 C           3.5836   -0.1950    0.0000 C.2     1  UNL1        0.0397
     20 C           3.0000   -0.9998    0.0000 C.2     1  UNL1        0.3355
     21 C           3.2729    0.7555    0.0000 C.2     1  UNL1       -0.0882
     22 C           6.2619    1.5002    0.0000 C.2     1  UNL1        0.3042
     23 C           6.2619    2.5002    0.0000 C.3     1  UNL1        0.0332
     24 H           4.9708   -2.7358    0.0000 H       1  UNL1        0.0662
     25 H           8.8439   -0.4999    0.0000 H       1  UNL1        0.0625
     26 H           4.4399   -2.3450    0.0000 H       1  UNL1        0.0769
     27 H           6.7294   -2.4747    0.0000 H       1  UNL1        0.0294
     28 H           7.5264   -2.4747    0.0000 H       1  UNL1        0.0294
     29 H           8.2060   -2.0824    0.0000 H       1  UNL1        0.0292
     30 H           8.6045   -1.3921    0.0000 H       1  UNL1        0.0292
     31 H           4.4399    0.3454    0.0000 H       1  UNL1        0.0424
     32 H           5.8633   -0.9747    0.0000 H       1  UNL1        0.0330
     33 H           6.6604   -0.9747    0.0000 H       1  UNL1        0.0330
     34 H           5.9328    0.3102    0.0000 H       1  UNL1        0.0742
     35 H           7.4379   -1.5367    0.0000 H       1  UNL1        0.0258
     36 H           7.6648   -0.6898    0.0000 H       1  UNL1        0.0258
     37 H           6.8179   -0.4628    0.0000 H       1  UNL1        0.0258
     38 H           6.5719    1.0372    0.0000 H       1  UNL1        0.0258
     39 H           5.7249    0.8102    0.0000 H       1  UNL1        0.0258
     40 H           5.9519   -0.0367    0.0000 H       1  UNL1        0.0258
     41 H           3.6870    1.2169    0.0000 H       1  UNL1        0.0540
     42 H           2.6663    0.8833    0.0000 H       1  UNL1        0.0540
     43 H           6.8819    2.5002    0.0000 H       1  UNL1        0.0342
     44 H           6.2619    3.1202    0.0000 H       1  UNL1        0.0342
     45 H           5.6419    2.5002    0.0000 H       1  UNL1        0.0342
@<TRIPOS>BOND
     1     1     7    1
     2     1     8    1
     3     2     9    1
     4     2    10    1
     5     3    11    1
     6     3    20    1
     7    16     4    1
     8     4    22    1
     9     5    20    2
    10     6    22    2
    11     7     8    1
    12     7    12    1
    13     7    17    1
    14     8    11    1
    15     8    24    1
    16     9    10    1
    17     9    15    1
    18     9    18    1
    19    10    13    1
    20    10    25    1
    21    11    14    1
    22    11    26    1
    23    12    13    1
    24    12    27    1
    25    12    28    1
    26    13    29    1
    27    13    30    1
    28    14    16    1
    29    14    19    1
    30    14    31    1
    31    15    16    1
    32    15    32    1
    33    15    33    1
    34    16    34    1
    35    17    35    1
    36    17    36    1
    37    17    37    1
    38    18    38    1
    39    18    39    1
    40    18    40    1
    41    19    20    1
    42    19    21    2
    43    21    41    1
    44    21    42    1
    45    22    23    1
    46    23    43    1
    47    23    44    1
    48    23    45    1
