@<TRIPOS>MOLECULE
IMPHY015807
 17 16 0 0 0
SMALL
GASTEIGER

@<TRIPOS>ATOM
      1 O           2.8660    0.7500    0.0000 O.3     1  UNL1       -0.4675
      2 O           6.3301    0.7500    0.0000 O.3     1  UNL1       -0.4675
      3 O           3.7320   -0.7500    0.0000 O.2     1  UNL1       -0.2503
      4 O           5.4641   -0.7500    0.0000 O.2     1  UNL1       -0.2503
      5 C           4.5981    0.7500    0.0000 C.3     1  UNL1        0.1419
      6 C           3.7320    0.2500    0.0000 C.2     1  UNL1        0.3177
      7 C           5.4641    0.2500    0.0000 C.2     1  UNL1        0.3177
      8 C           2.0000    0.2500    0.0000 C.3     1  UNL1        0.0817
      9 C           7.1962    0.2500    0.0000 C.3     1  UNL1        0.0817
     10 H           4.9966    1.2250    0.0000 H       1  UNL1        0.0493
     11 H           4.1996    1.2250    0.0000 H       1  UNL1        0.0493
     12 H           1.6900    0.7869    0.0000 H       1  UNL1        0.0661
     13 H           1.4631   -0.0600    0.0000 H       1  UNL1        0.0661
     14 H           2.3100   -0.2869    0.0000 H       1  UNL1        0.0661
     15 H           6.8862   -0.2869    0.0000 H       1  UNL1        0.0661
     16 H           7.7331   -0.0600    0.0000 H       1  UNL1        0.0661
     17 H           7.5062    0.7869    0.0000 H       1  UNL1        0.0661
@<TRIPOS>BOND
     1     1     6    1
     2     1     8    1
     3     2     7    1
     4     2     9    1
     5     3     6    2
     6     4     7    2
     7     5     6    1
     8     5     7    1
     9     5    10    1
    10     5    11    1
    11     8    12    1
    12     8    13    1
    13     8    14    1
    14     9    15    1
    15     9    16    1
    16     9    17    1
