@<TRIPOS>MOLECULE
IMPHY017920
 16 17 0 0 0
SMALL
GASTEIGER

@<TRIPOS>ATOM
      1 C           1.3257   -1.9620    0.0000 C.3     1  UNL1        0.0037
      2 C           2.6514   -3.2877    0.0000 C.3     1  UNL1        0.0040
      3 C           2.6514   -1.9355    0.0000 C.3     1  UNL1        0.0217
      4 C           1.3257   -3.2877    0.0000 C.3     1  UNL1        0.0006
      5 C           3.8180   -1.2992    0.0000 C.2     1  UNL1       -0.0310
      6 C           3.8180   -3.9506    0.0000 C.3     1  UNL1        0.0003
      7 C           4.9581   -1.9355    0.0000 C.2     1  UNL1       -0.0284
      8 C           1.2992   -0.6628    0.0000 C.3     1  UNL1        0.0003
      9 C           0.0000   -1.9620    0.0000 C.3     1  UNL1        0.0003
     10 C           6.2308   -1.5378    0.0000 C.3     1  UNL1        0.0547
     11 C           6.2308   -3.7119    0.0000 C.3     1  UNL1        0.0004
     12 C           4.9581   -3.2877    0.0000 C.3     1  UNL1        0.0000
     13 C           3.8180   -5.2763    0.0000 C.3     1  UNL1        0.0000
     14 C           7.0262   -2.5984    0.0000 C.3     1  UNL1        0.0070
     15 C           6.6285   -0.2917    0.0000 C.3     1  UNL1        0.1863
     16 O           7.9542    0.0000    0.0000 O.3     1  UNL1       -0.2201
@<TRIPOS>BOND
     1     1     3    1
     2     1     4    1
     3     1     8    1
     4     1     9    1
     5     2     4    1
     6     2     6    1
     7     2     3    1
     8     3     5    1
     9     5     7    2
    10     6    12    1
    11     6    13    1
    12     7    10    1
    13    10    14    1
    14    10    15    1
    15    11    12    1
    16    11    14    1
    17    15    16    1
