@<TRIPOS>MOLECULE
IMPHY013922
 68 73 0 0 0
SMALL
GASTEIGER

@<TRIPOS>ATOM
      1 O           6.8671   -0.3105    0.0000 O.3     1  UNL1       -0.3313
      2 O           4.2690   -2.8105    0.0000 O.3     1  UNL1       -0.3405
      3 O           6.0010   -2.8105    0.0000 O.3     1  UNL1       -0.3460
      4 O           7.7331    1.1895    0.0000 O.3     1  UNL1       -0.4553
      5 O           7.7331   -2.8105    0.0000 O.3     1  UNL1       -0.3865
      6 O           9.4651   -1.8105    0.0000 O.3     1  UNL1       -0.3864
      7 O           9.4651    0.1895    0.0000 O.3     1  UNL1       -0.3829
      8 O           6.0010   -4.8105    0.0000 O.3     1  UNL1       -0.3841
      9 O           4.2690   -5.8105    0.0000 O.3     1  UNL1       -0.3864
     10 O           2.5369   -4.8105    0.0000 O.3     1  UNL1       -0.3865
     11 O           2.5369   -1.8105    0.0000 O.3     1  UNL1       -0.3924
     12 O           7.7252    3.2378    0.0000 O.2     1  UNL1       -0.2633
     13 N           5.9550    3.2415    0.0000 N.ar    1  UNL1       -0.2713
     14 N           4.1204    1.3583    0.0000 N.ar    1  UNL1       -0.2533
     15 C           6.8671   -1.3105    0.0000 C.3     1  UNL1        0.1144
     16 C           7.7331   -1.8105    0.0000 C.3     1  UNL1        0.1120
     17 C           8.5991   -1.3105    0.0000 C.3     1  UNL1        0.1152
     18 C           8.5991   -0.3105    0.0000 C.3     1  UNL1        0.1454
     19 C           5.1350   -4.3105    0.0000 C.3     1  UNL1        0.1341
     20 C           5.1350   -3.3105    0.0000 C.3     1  UNL1        0.1880
     21 C           4.2690   -4.8105    0.0000 C.3     1  UNL1        0.1141
     22 C           3.4030   -4.3105    0.0000 C.3     1  UNL1        0.1119
     23 C           7.7331    0.1895    0.0000 C.3     1  UNL1        0.2310
     24 C           3.4030   -3.3105    0.0000 C.3     1  UNL1        0.1130
     25 C           6.0010   -1.8105    0.0000 C.3     1  UNL1        0.0796
     26 C           2.5369   -2.8105    0.0000 C.3     1  UNL1        0.0730
     27 C           6.8671    1.6895    0.0000 C.ar    1  UNL1        0.1906
     28 C           5.0871    2.7448    0.0000 C.ar    1  UNL1        0.0833
     29 C           6.8630    2.7312    0.0000 C.ar    1  UNL1        0.2983
     30 C           5.7509    4.2204    0.0000 C.ar    1  UNL1        0.0580
     31 C           4.3465    3.4168    0.0000 C.ar    1  UNL1        0.0115
     32 C           5.0670    1.7034    0.0000 C.ar    1  UNL1        0.0919
     33 C           5.9630    1.1722    0.0000 C.ar    1  UNL1        0.0130
     34 C           4.7568    4.3288    0.0000 C.ar    1  UNL1        0.0082
     35 C           3.4377    2.9818    0.0000 C.ar    1  UNL1       -0.0338
     36 C           6.3792    5.0512    0.0000 C.ar    1  UNL1       -0.0371
     37 C           4.3221    5.2754    0.0000 C.ar    1  UNL1       -0.0520
     38 C           3.3277    1.9802    0.0000 C.ar    1  UNL1        0.0290
     39 C           5.9666    6.0076    0.0000 C.ar    1  UNL1       -0.0598
     40 C           4.9311    6.1205    0.0000 C.ar    1  UNL1       -0.0611
     41 H           6.3301   -1.0005    0.0000 H       1  UNL1        0.0647
     42 H           8.2700   -2.1205    0.0000 H       1  UNL1        0.0647
     43 H           9.1360   -1.0005    0.0000 H       1  UNL1        0.0648
     44 H           8.5991    0.3095    0.0000 H       1  UNL1        0.0683
     45 H           5.1350   -4.9305    0.0000 H       1  UNL1        0.0671
     46 H           5.1350   -2.6905    0.0000 H       1  UNL1        0.0937
     47 H           3.7320   -5.1205    0.0000 H       1  UNL1        0.0648
     48 H           3.4030   -4.9305    0.0000 H       1  UNL1        0.0647
     49 H           7.1962    0.4995    0.0000 H       1  UNL1        0.1084
     50 H           3.4030   -2.6905    0.0000 H       1  UNL1        0.0647
     51 H           5.7890   -1.2279    0.0000 H       1  UNL1        0.0587
     52 H           5.3905   -1.9181    0.0000 H       1  UNL1        0.0587
     53 H           1.9264   -2.7028    0.0000 H       1  UNL1        0.0584
     54 H           2.3249   -3.3931    0.0000 H       1  UNL1        0.0584
     55 H           8.2700   -3.1205    0.0000 H       1  UNL1        0.2100
     56 H          10.0021   -1.5005    0.0000 H       1  UNL1        0.2100
     57 H           9.4651    0.8095    0.0000 H       1  UNL1        0.2102
     58 H           6.5380   -4.5005    0.0000 H       1  UNL1        0.2101
     59 H           3.7320   -6.1205    0.0000 H       1  UNL1        0.2100
     60 H           2.0000   -4.5005    0.0000 H       1  UNL1        0.2100
     61 H           5.9582    0.5522    0.0000 H       1  UNL1        0.0678
     62 H           2.0000   -1.5005    0.0000 H       1  UNL1        0.2095
     63 H           2.9320    3.3404    0.0000 H       1  UNL1        0.0639
     64 H           6.9948    4.9769    0.0000 H       1  UNL1        0.0638
     65 H           3.7050    5.3355    0.0000 H       1  UNL1        0.0624
     66 H           2.7562    1.7399    0.0000 H       1  UNL1        0.0830
     67 H           6.3349    6.5064    0.0000 H       1  UNL1        0.0618
     68 H           4.6789    6.6869    0.0000 H       1  UNL1        0.0618
@<TRIPOS>BOND
     1     1    15    1
     2     1    23    1
     3     2    20    1
     4     2    24    1
     5    20     3    1
     6     3    25    1
     7    23     4    1
     8     4    27    1
     9    16     5    1
    10     5    55    1
    11    17     6    1
    12     6    56    1
    13    18     7    1
    14     7    57    1
    15    19     8    1
    16     8    58    1
    17    21     9    1
    18     9    59    1
    19    22    10    1
    20    10    60    1
    21    11    26    1
    22    11    62    1
    23    12    29    2
    24    13    28   ar
    25    13    29   ar
    26    13    30   ar
    27    14    32   ar
    28    14    38   ar
    29    15    16    1
    30    15    25    1
    31    15    41    1
    32    16    17    1
    33    16    42    1
    34    17    18    1
    35    17    43    1
    36    18    23    1
    37    18    44    1
    38    19    20    1
    39    19    21    1
    40    19    45    1
    41    20    46    1
    42    21    22    1
    43    21    47    1
    44    22    24    1
    45    22    48    1
    46    23    49    1
    47    24    26    1
    48    24    50    1
    49    25    51    1
    50    25    52    1
    51    26    53    1
    52    26    54    1
    53    27    29   ar
    54    27    33   ar
    55    28    31   ar
    56    28    32   ar
    57    30    34   ar
    58    30    36   ar
    59    31    34   ar
    60    31    35   ar
    61    32    33   ar
    62    33    61    1
    63    34    37   ar
    64    35    38   ar
    65    35    63    1
    66    36    39   ar
    67    36    64    1
    68    37    40   ar
    69    37    65    1
    70    38    66    1
    71    39    40   ar
    72    39    67    1
    73    40    68    1
