@<TRIPOS>MOLECULE
IMPHY017720
 22 23 0 0 0
SMALL
GASTEIGER

@<TRIPOS>ATOM
      1 O           2.5369   -0.5000    0.0000 O.3     1  UNL1       -0.3904
      2 C           6.0010   -0.5000    0.0000 C.ar    1  UNL1       -0.0176
      3 C           6.0010    0.5000    0.0000 C.ar    1  UNL1       -0.0179
      4 C           4.2690   -0.5000    0.0000 C.ar    1  UNL1       -0.0216
      5 C           5.1350   -1.0000    0.0000 C.ar    1  UNL1       -0.0487
      6 C           5.1350    1.0000    0.0000 C.ar    1  UNL1       -0.0537
      7 C           4.2690    0.5000    0.0000 C.ar    1  UNL1       -0.0558
      8 C           6.8950   -1.0347    0.0000 C.ar    1  UNL1       -0.0540
      9 C           6.8950    1.0347    0.0000 C.ar    1  UNL1       -0.0540
     10 C           3.4030   -1.0000    0.0000 C.3     1  UNL1        0.0693
     11 C           7.8010   -0.5208    0.0000 C.ar    1  UNL1       -0.0612
     12 C           7.8010    0.5208    0.0000 C.ar    1  UNL1       -0.0612
     13 H           5.1350   -1.6200    0.0000 H       1  UNL1        0.0627
     14 H           5.1350    1.6200    0.0000 H       1  UNL1        0.0624
     15 H           3.7320    0.8100    0.0000 H       1  UNL1        0.0621
     16 H           6.8878   -1.6546    0.0000 H       1  UNL1        0.0624
     17 H           6.8878    1.6546    0.0000 H       1  UNL1        0.0624
     18 H           3.0044   -1.4750    0.0000 H       1  UNL1        0.0607
     19 H           3.8015   -1.4750    0.0000 H       1  UNL1        0.0607
     20 H           8.3368   -0.8329    0.0000 H       1  UNL1        0.0618
     21 H           8.3368    0.8329    0.0000 H       1  UNL1        0.0618
     22 H           2.0000   -0.8100    0.0000 H       1  UNL1        0.2098
@<TRIPOS>BOND
     1     1    10    1
     2     1    22    1
     3     2     3   ar
     4     2     5   ar
     5     2     8   ar
     6     3     6   ar
     7     3     9   ar
     8     4     5   ar
     9     4     7   ar
    10     4    10    1
    11     5    13    1
    12     6     7   ar
    13     6    14    1
    14     7    15    1
    15     8    11   ar
    16     8    16    1
    17     9    12   ar
    18     9    17    1
    19    10    18    1
    20    10    19    1
    21    11    12   ar
    22    11    20    1
    23    12    21    1
