@<TRIPOS>MOLECULE
IMPHY004081
 178 187 0 0 0
SMALL
GASTEIGER

@<TRIPOS>ATOM
      1 O          14.3523    4.5909    0.0000 O.3     1  UNL1       -0.3450
      2 O          12.8233    5.8229    0.0000 O.3     1  UNL1       -0.3642
      3 O          12.9292   -3.6532    0.0000 O.3     1  UNL1       -0.3454
      4 O          11.1972   -3.6532    0.0000 O.3     1  UNL1       -0.3405
      5 O          16.9869    7.6903    0.0000 O.3     1  UNL1       -0.3484
      6 O          12.9292   -5.6532    0.0000 O.3     1  UNL1       -0.3841
      7 O          11.1972   -6.6532    0.0000 O.3     1  UNL1       -0.3400
      8 O           9.4651   -5.6532    0.0000 O.3     1  UNL1       -0.3401
      9 O           9.4651   -2.6532    0.0000 O.3     1  UNL1       -0.3924
     10 O          18.4894    6.8287    0.0000 O.3     1  UNL1       -0.3405
     11 O          12.9292   -6.6532    0.0000 O.3     1  UNL1       -0.3405
     12 O           8.5991   -4.1532    0.0000 O.3     1  UNL1       -0.3405
     13 O          17.9817    9.4253    0.0000 O.3     1  UNL1       -0.3841
     14 O          11.1972   -8.6532    0.0000 O.3     1  UNL1       -0.3841
     15 O          19.9817    9.4313    0.0000 O.3     1  UNL1       -0.3864
     16 O           7.7331   -6.6532    0.0000 O.3     1  UNL1       -0.3841
     17 O          20.9868    7.7022    0.0000 O.3     1  UNL1       -0.3865
     18 O          12.9292   -9.6532    0.0000 O.3     1  UNL1       -0.3864
     19 O           6.0010   -5.6532    0.0000 O.3     1  UNL1       -0.3864
     20 O          14.6613   -8.6532    0.0000 O.3     1  UNL1       -0.3865
     21 O           6.0010   -3.6532    0.0000 O.3     1  UNL1       -0.3402
     22 O          20.9920    5.9702    0.0000 O.3     1  UNL1       -0.3924
     23 O          14.6613   -5.6532    0.0000 O.3     1  UNL1       -0.3924
     24 O           6.8671   -2.1532    0.0000 O.3     1  UNL1       -0.3924
     25 O           5.1350   -5.1532    0.0000 O.3     1  UNL1       -0.3461
     26 O           4.2690   -2.6532    0.0000 O.3     1  UNL1       -0.3841
     27 O           2.5369   -3.6532    0.0000 O.3     1  UNL1       -0.3864
     28 O           2.5369   -5.6532    0.0000 O.3     1  UNL1       -0.3869
     29 C          12.9585    2.5437    0.0000 C.3     1  UNL1       -0.0233
     30 C          13.8264    2.0471    0.0000 C.3     1  UNL1       -0.0298
     31 C          13.8303    1.0471    0.0000 C.3     1  UNL1       -0.0343
     32 C          13.1640    3.5163    0.0000 C.3     1  UNL1       -0.0015
     33 C          12.9662    0.5437    0.0000 C.3     1  UNL1       -0.0323
     34 C          12.9542   -0.4978    0.0000 C.3     1  UNL1       -0.0260
     35 C          14.1523    3.6232    0.0000 C.3     1  UNL1        0.0660
     36 C          14.5609    2.7170    0.0000 C.3     1  UNL1       -0.0226
     37 C          12.0944    2.0404    0.0000 C.3     1  UNL1       -0.0467
     38 C          12.0983    1.0404    0.0000 C.3     1  UNL1       -0.0489
     39 C          13.8542   -1.0221    0.0000 C.3     1  UNL1       -0.0330
     40 C          12.7617    4.4189    0.0000 C.3     1  UNL1        0.0158
     41 C          14.7422    0.5437    0.0000 C.3     1  UNL1       -0.0494
     42 C          14.7543   -0.4978    0.0000 C.3     1  UNL1       -0.0494
     43 C          12.0906    3.0404    0.0000 C.3     1  UNL1       -0.0590
     44 C          13.4946    5.0817    0.0000 C.3     1  UNL1        0.1704
     45 C          12.0043   -1.0221    0.0000 C.3     1  UNL1       -0.0448
     46 C          13.8668   -2.1070    0.0000 C.3     1  UNL1       -0.0232
     47 C          12.0901    0.0055    0.0000 C.3     1  UNL1       -0.0590
     48 C          11.9917   -2.1070    0.0000 C.3     1  UNL1       -0.0260
     49 C          12.9292   -2.6532    0.0000 C.3     1  UNL1        0.0621
     50 C          11.7833    4.6256    0.0000 C.3     1  UNL1       -0.0572
     51 C          13.9920    5.9492    0.0000 C.3     1  UNL1        0.0018
     52 C          14.9920    5.9522    0.0000 C.3     1  UNL1       -0.0435
     53 C          15.4894    6.8198    0.0000 C.3     1  UNL1       -0.0201
     54 C          12.0632   -4.1532    0.0000 C.3     1  UNL1        0.1882
     55 C          12.0632   -5.1532    0.0000 C.3     1  UNL1        0.1345
     56 C          16.4894    6.8227    0.0000 C.3     1  UNL1        0.0533
     57 C          14.9869    7.6843    0.0000 C.3     1  UNL1       -0.0603
     58 C          11.1972   -5.6532    0.0000 C.3     1  UNL1        0.1209
     59 C          10.3312   -4.1532    0.0000 C.3     1  UNL1        0.1134
     60 C          10.3312   -5.1532    0.0000 C.3     1  UNL1        0.1188
     61 C           9.4651   -3.6532    0.0000 C.3     1  UNL1        0.0730
     62 C          17.9868    7.6932    0.0000 C.3     1  UNL1        0.1879
     63 C          12.0632   -7.1532    0.0000 C.3     1  UNL1        0.1884
     64 C          18.4843    8.5608    0.0000 C.3     1  UNL1        0.1341
     65 C           8.5991   -5.1532    0.0000 C.3     1  UNL1        0.1884
     66 C          12.0632   -8.1532    0.0000 C.3     1  UNL1        0.1341
     67 C          19.4843    8.5638    0.0000 C.3     1  UNL1        0.1141
     68 C           7.7331   -5.6532    0.0000 C.3     1  UNL1        0.1341
     69 C          19.4894    6.8317    0.0000 C.3     1  UNL1        0.1130
     70 C          19.9868    7.6992    0.0000 C.3     1  UNL1        0.1119
     71 C          12.9292   -8.6532    0.0000 C.3     1  UNL1        0.1141
     72 C          13.7953   -7.1532    0.0000 C.3     1  UNL1        0.1130
     73 C           6.8671   -5.1532    0.0000 C.3     1  UNL1        0.1144
     74 C          13.7953   -8.1532    0.0000 C.3     1  UNL1        0.1119
     75 C           7.7331   -3.6532    0.0000 C.3     1  UNL1        0.1134
     76 C           6.8671   -4.1532    0.0000 C.3     1  UNL1        0.1184
     77 C          19.9920    5.9672    0.0000 C.3     1  UNL1        0.0730
     78 C          14.6613   -6.6532    0.0000 C.3     1  UNL1        0.0730
     79 C           7.7331   -2.6532    0.0000 C.3     1  UNL1        0.0730
     80 C           5.1350   -4.1532    0.0000 C.3     1  UNL1        0.1880
     81 C           4.2690   -3.6532    0.0000 C.3     1  UNL1        0.1341
     82 C           3.4030   -4.1532    0.0000 C.3     1  UNL1        0.1137
     83 C           4.2690   -5.6532    0.0000 C.3     1  UNL1        0.0792
     84 C           3.4030   -5.1532    0.0000 C.3     1  UNL1        0.1069
     85 H          14.3941    1.7978    0.0000 H       1  UNL1        0.0310
     86 H          14.3636    1.3633    0.0000 H       1  UNL1        0.0306
     87 H          12.5474    3.4510    0.0000 H       1  UNL1        0.0335
     88 H          13.5019    0.2317    0.0000 H       1  UNL1        0.0309
     89 H          14.7685    3.6912    0.0000 H       1  UNL1        0.0600
     90 H          14.9283    2.2175    0.0000 H       1  UNL1        0.0293
     91 H          15.0962    3.0298    0.0000 H       1  UNL1        0.0293
     92 H          11.8801    2.6222    0.0000 H       1  UNL1        0.0271
     93 H          11.4842    1.9304    0.0000 H       1  UNL1        0.0271
     94 H          11.4873    1.1457    0.0000 H       1  UNL1        0.0268
     95 H          11.8885    0.4570    0.0000 H       1  UNL1        0.0268
     96 H          14.3935   -1.3280    0.0000 H       1  UNL1        0.0307
     97 H          12.3719    3.9368    0.0000 H       1  UNL1        0.0354
     98 H          15.3543    0.4447    0.0000 H       1  UNL1        0.0268
     99 H          14.9445    1.1298    0.0000 H       1  UNL1        0.0268
    100 H          14.9701   -1.0791    0.0000 H       1  UNL1        0.0268
    101 H          15.3639   -0.3847    0.0000 H       1  UNL1        0.0268
    102 H          12.3985    3.5785    0.0000 H       1  UNL1        0.0235
    103 H          11.5524    3.3483    0.0000 H       1  UNL1        0.0235
    104 H          11.7826    2.5022    0.0000 H       1  UNL1        0.0235
    105 H          11.8020   -0.4360    0.0000 H       1  UNL1        0.0271
    106 H          11.3922   -1.1211    0.0000 H       1  UNL1        0.0271
    107 H          14.0826   -2.6883    0.0000 H       1  UNL1        0.0293
    108 H          14.4764   -1.9939    0.0000 H       1  UNL1        0.0293
    109 H          12.4021    0.5412    0.0000 H       1  UNL1        0.0235
    110 H          11.5543    0.3176    0.0000 H       1  UNL1        0.0235
    111 H          11.7780   -0.5302    0.0000 H       1  UNL1        0.0235
    112 H          11.3821   -1.9939    0.0000 H       1  UNL1        0.0290
    113 H          11.7759   -2.6883    0.0000 H       1  UNL1        0.0290
    114 H          12.3917   -2.9621    0.0000 H       1  UNL1        0.0597
    115 H          11.9114    5.2322    0.0000 H       1  UNL1        0.0234
    116 H          11.1766    4.7538    0.0000 H       1  UNL1        0.0234
    117 H          11.6551    4.0190    0.0000 H       1  UNL1        0.0234
    118 H          14.0979    6.5602    0.0000 H       1  UNL1        0.0317
    119 H          13.4088    6.1596    0.0000 H       1  UNL1        0.0317
    120 H          13.0131    6.4131    0.0000 H       1  UNL1        0.2128
    121 H          14.8862    5.3413    0.0000 H       1  UNL1        0.0270
    122 H          15.5753    5.7419    0.0000 H       1  UNL1        0.0270
    123 H          14.8694    6.8179    0.0000 H       1  UNL1        0.0320
    124 H          12.0632   -3.5332    0.0000 H       1  UNL1        0.0937
    125 H          12.0632   -5.7732    0.0000 H       1  UNL1        0.0671
    126 H          16.3836    6.2118    0.0000 H       1  UNL1        0.0563
    127 H          17.0727    6.6124    0.0000 H       1  UNL1        0.0563
    128 H          15.5229    7.9959    0.0000 H       1  UNL1        0.0233
    129 H          14.6753    8.2203    0.0000 H       1  UNL1        0.0233
    130 H          14.4509    7.3727    0.0000 H       1  UNL1        0.0233
    131 H          10.6603   -5.9632    0.0000 H       1  UNL1        0.0651
    132 H          10.3312   -3.5332    0.0000 H       1  UNL1        0.0647
    133 H           9.7942   -4.8431    0.0000 H       1  UNL1        0.0651
    134 H          13.4662   -5.3431    0.0000 H       1  UNL1        0.2101
    135 H           8.8546   -3.5455    0.0000 H       1  UNL1        0.0584
    136 H           9.2531   -4.2358    0.0000 H       1  UNL1        0.0584
    137 H          17.6752    8.2292    0.0000 H       1  UNL1        0.0937
    138 H          11.5263   -7.4632    0.0000 H       1  UNL1        0.0938
    139 H          18.7926    9.0986    0.0000 H       1  UNL1        0.0671
    140 H           8.5991   -5.7732    0.0000 H       1  UNL1        0.0938
    141 H           8.9282   -2.3432    0.0000 H       1  UNL1        0.2095
    142 H          12.6002   -7.8432    0.0000 H       1  UNL1        0.0671
    143 H          20.1042    8.5656    0.0000 H       1  UNL1        0.0648
    144 H           7.1962   -5.9632    0.0000 H       1  UNL1        0.0671
    145 H          19.1810    6.2938    0.0000 H       1  UNL1        0.0647
    146 H          20.2984    7.1632    0.0000 H       1  UNL1        0.0647
    147 H          12.3923   -8.9632    0.0000 H       1  UNL1        0.0648
    148 H          13.7953   -6.5332    0.0000 H       1  UNL1        0.0647
    149 H           6.3301   -4.8431    0.0000 H       1  UNL1        0.0648
    150 H          14.3322   -7.8432    0.0000 H       1  UNL1        0.0647
    151 H          18.2901    9.9632    0.0000 H       1  UNL1        0.2101
    152 H           8.2700   -3.3432    0.0000 H       1  UNL1        0.0647
    153 H           6.8671   -3.5332    0.0000 H       1  UNL1        0.0651
    154 H          19.4100    5.7534    0.0000 H       1  UNL1        0.0584
    155 H          20.1015    5.3569    0.0000 H       1  UNL1        0.0584
    156 H          10.6603   -8.3432    0.0000 H       1  UNL1        0.2101
    157 H          20.6017    9.4331    0.0000 H       1  UNL1        0.2100
    158 H           7.1962   -6.9632    0.0000 H       1  UNL1        0.2101
    159 H          14.8733   -7.2358    0.0000 H       1  UNL1        0.0584
    160 H          15.2719   -6.5455    0.0000 H       1  UNL1        0.0584
    161 H          21.2952    8.2401    0.0000 H       1  UNL1        0.2100
    162 H          13.4662   -9.9632    0.0000 H       1  UNL1        0.2100
    163 H           8.3437   -2.7608    0.0000 H       1  UNL1        0.0584
    164 H           7.9451   -2.0705    0.0000 H       1  UNL1        0.0584
    165 H           6.0010   -6.2732    0.0000 H       1  UNL1        0.2100
    166 H          15.1982   -8.3432    0.0000 H       1  UNL1        0.2100
    167 H          21.3036    5.4342    0.0000 H       1  UNL1        0.2095
    168 H           5.1350   -3.5332    0.0000 H       1  UNL1        0.0937
    169 H          15.1982   -5.3431    0.0000 H       1  UNL1        0.2095
    170 H           6.8671   -1.5332    0.0000 H       1  UNL1        0.2095
    171 H           3.7320   -3.3432    0.0000 H       1  UNL1        0.0671
    172 H           3.9399   -4.4632    0.0000 H       1  UNL1        0.0647
    173 H           3.8705   -6.1281    0.0000 H       1  UNL1        0.0587
    174 H           4.6675   -6.1281    0.0000 H       1  UNL1        0.0587
    175 H           3.4030   -5.7732    0.0000 H       1  UNL1        0.0643
    176 H           3.7320   -2.3432    0.0000 H       1  UNL1        0.2101
    177 H           2.0000   -3.9632    0.0000 H       1  UNL1        0.2100
    178 H           2.5369   -6.2732    0.0000 H       1  UNL1        0.2100
@<TRIPOS>BOND
     1     1    35    1
     2     1    44    1
     3     2    44    1
     4     2   120    1
     5     3    49    1
     6     3    54    1
     7     4    54    1
     8     4    59    1
     9     5    56    1
    10     5    62    1
    11     6    55    1
    12     6   134    1
    13     7    58    1
    14     7    63    1
    15     8    60    1
    16     8    65    1
    17     9    61    1
    18     9   141    1
    19    10    62    1
    20    10    69    1
    21    11    63    1
    22    11    72    1
    23    12    65    1
    24    12    75    1
    25    13    64    1
    26    13   151    1
    27    14    66    1
    28    14   156    1
    29    15    67    1
    30    15   157    1
    31    16    68    1
    32    16   158    1
    33    17    70    1
    34    17   161    1
    35    18    71    1
    36    18   162    1
    37    19    73    1
    38    19   165    1
    39    20    74    1
    40    20   166    1
    41    21    76    1
    42    21    80    1
    43    22    77    1
    44    22   167    1
    45    23    78    1
    46    23   169    1
    47    24    79    1
    48    24   170    1
    49    25    80    1
    50    25    83    1
    51    26    81    1
    52    26   176    1
    53    27    82    1
    54    27   177    1
    55    28    84    1
    56    28   178    1
    57    29    30    1
    58    29    32    1
    59    29    37    1
    60    29    43    1
    61    30    31    1
    62    30    36    1
    63    30    85    1
    64    31    33    1
    65    31    41    1
    66    31    86    1
    67    32    35    1
    68    32    40    1
    69    32    87    1
    70    33    34    1
    71    33    38    1
    72    33    88    1
    73    34    39    1
    74    34    45    1
    75    34    47    1
    76    35    36    1
    77    35    89    1
    78    36    90    1
    79    36    91    1
    80    37    38    1
    81    37    92    1
    82    37    93    1
    83    38    94    1
    84    38    95    1
    85    39    42    1
    86    39    46    1
    87    39    96    1
    88    40    44    1
    89    40    50    1
    90    40    97    1
    91    41    42    1
    92    41    98    1
    93    41    99    1
    94    42   100    1
    95    42   101    1
    96    43   102    1
    97    43   103    1
    98    43   104    1
    99    44    51    1
   100    45    48    1
   101    45   105    1
   102    45   106    1
   103    46    49    1
   104    46   107    1
   105    46   108    1
   106    47   109    1
   107    47   110    1
   108    47   111    1
   109    48    49    1
   110    48   112    1
   111    48   113    1
   112    49   114    1
   113    50   115    1
   114    50   116    1
   115    50   117    1
   116    51    52    1
   117    51   118    1
   118    51   119    1
   119    52    53    1
   120    52   121    1
   121    52   122    1
   122    53    56    1
   123    53    57    1
   124    53   123    1
   125    54    55    1
   126    54   124    1
   127    55    58    1
   128    55   125    1
   129    56   126    1
   130    56   127    1
   131    57   128    1
   132    57   129    1
   133    57   130    1
   134    58    60    1
   135    58   131    1
   136    59    60    1
   137    59    61    1
   138    59   132    1
   139    60   133    1
   140    61   135    1
   141    61   136    1
   142    62    64    1
   143    62   137    1
   144    63    66    1
   145    63   138    1
   146    64    67    1
   147    64   139    1
   148    65    68    1
   149    65   140    1
   150    66    71    1
   151    66   142    1
   152    67    70    1
   153    67   143    1
   154    68    73    1
   155    68   144    1
   156    69    70    1
   157    69    77    1
   158    69   145    1
   159    70   146    1
   160    71    74    1
   161    71   147    1
   162    72    74    1
   163    72    78    1
   164    72   148    1
   165    73    76    1
   166    73   149    1
   167    74   150    1
   168    75    76    1
   169    75    79    1
   170    75   152    1
   171    76   153    1
   172    77   154    1
   173    77   155    1
   174    78   159    1
   175    78   160    1
   176    79   163    1
   177    79   164    1
   178    80    81    1
   179    80   168    1
   180    81    82    1
   181    81   171    1
   182    82    84    1
   183    82   172    1
   184    83    84    1
   185    83   173    1
   186    83   174    1
   187    84   175    1
