@<TRIPOS>MOLECULE
IMPHY004342
 52 55 0 0 0
SMALL
GASTEIGER

@<TRIPOS>ATOM
      1 O           5.1350   -1.6725    0.0000 O.3     1  UNL1       -0.3313
      2 O           6.8671   -1.6725    0.0000 O.3     1  UNL1       -0.4569
      3 O           5.1350   -4.6725    0.0000 O.3     1  UNL1       -0.3864
      4 O           3.4030   -3.6725    0.0000 O.3     1  UNL1       -0.3865
      5 O           6.8671   -3.6725    0.0000 O.3     1  UNL1       -0.3829
      6 O           2.5369   -2.1725    0.0000 O.3     1  UNL1       -0.3924
      7 O           8.6431    1.3343    0.0000 O.2     1  UNL1       -0.4544
      8 O           5.1350   -0.6725    0.0000 O.3     1  UNL1       -0.5009
      9 O           5.1350    1.3275    0.0000 O.3     1  UNL1       -0.5027
     10 O           5.9793    2.8589    0.0000 O.2     1  UNL1       -0.2869
     11 O          12.1229    4.3625    0.0000 O.3     1  UNL1       -0.5068
     12 C           5.1350   -3.6725    0.0000 C.3     1  UNL1        0.1152
     13 C           4.2690   -3.1725    0.0000 C.3     1  UNL1        0.1120
     14 C           6.0010   -3.1725    0.0000 C.3     1  UNL1        0.1454
     15 C           4.2690   -2.1725    0.0000 C.3     1  UNL1        0.1140
     16 C           6.0010   -2.1725    0.0000 C.3     1  UNL1        0.2310
     17 C           3.4030   -1.6725    0.0000 C.3     1  UNL1        0.0731
     18 C           6.8671   -0.6725    0.0000 C.ar    1  UNL1        0.1724
     19 C           7.7331   -0.1725    0.0000 C.ar    1  UNL1        0.0271
     20 C           6.0010   -0.1725    0.0000 C.ar    1  UNL1        0.2019
     21 C           7.7331    0.8275    0.0000 C.ar    1  UNL1        0.1465
     22 C           6.8671    1.3275    0.0000 C.ar    1  UNL1        0.1091
     23 C           6.0010    0.8275    0.0000 C.ar    1  UNL1        0.1766
     24 C           6.8510    2.3690    0.0000 C.ar    1  UNL1        0.1967
     25 C           8.6511    2.3759    0.0000 C.ar    1  UNL1        0.1392
     26 C           7.7490    2.8967    0.0000 C.ar    1  UNL1        0.0288
     27 C           9.5191    2.8726    0.0000 C.ar    1  UNL1        0.0176
     28 C          10.3832    2.3692    0.0000 C.ar    1  UNL1       -0.0476
     29 C           9.5229    3.8726    0.0000 C.ar    1  UNL1       -0.0476
     30 C          11.2511    2.8659    0.0000 C.ar    1  UNL1       -0.0195
     31 C          10.3909    4.3692    0.0000 C.ar    1  UNL1       -0.0195
     32 C          11.2550    3.8659    0.0000 C.ar    1  UNL1        0.1169
     33 H           5.6720   -3.9825    0.0000 H       1  UNL1        0.0648
     34 H           4.2690   -3.7925    0.0000 H       1  UNL1        0.0647
     35 H           6.5380   -2.8625    0.0000 H       1  UNL1        0.0683
     36 H           4.2690   -1.5525    0.0000 H       1  UNL1        0.0647
     37 H           6.0010   -1.5525    0.0000 H       1  UNL1        0.1084
     38 H           3.8015   -1.1976    0.0000 H       1  UNL1        0.0584
     39 H           3.0044   -1.1976    0.0000 H       1  UNL1        0.0584
     40 H           4.5981   -4.9825    0.0000 H       1  UNL1        0.2100
     41 H           3.4030   -4.2925    0.0000 H       1  UNL1        0.2100
     42 H           6.8671   -4.2925    0.0000 H       1  UNL1        0.2102
     43 H           2.0000   -1.8625    0.0000 H       1  UNL1        0.2095
     44 H           8.2700   -0.4825    0.0000 H       1  UNL1        0.0692
     45 H           7.7466    3.5167    0.0000 H       1  UNL1        0.0693
     46 H           4.5981   -0.3625    0.0000 H       1  UNL1        0.2924
     47 H           4.5981    1.0175    0.0000 H       1  UNL1        0.2923
     48 H          10.3808    1.7492    0.0000 H       1  UNL1        0.0626
     49 H           8.9872    4.1846    0.0000 H       1  UNL1        0.0626
     50 H          11.7868    2.5538    0.0000 H       1  UNL1        0.0654
     51 H          10.3933    4.9892    0.0000 H       1  UNL1        0.0654
     52 H          12.1253    4.9825    0.0000 H       1  UNL1        0.2921
@<TRIPOS>BOND
     1     1    15    1
     2     1    16    1
     3    16     2    1
     4     2    18    1
     5    12     3    1
     6     3    40    1
     7    13     4    1
     8     4    41    1
     9    14     5    1
    10     5    42    1
    11     6    17    1
    12     6    43    1
    13     7    21   ar
    14     7    25   ar
    15     8    20    1
    16     8    46    1
    17     9    23    1
    18     9    47    1
    19    10    24    2
    20    11    32    1
    21    11    52    1
    22    12    13    1
    23    12    14    1
    24    12    33    1
    25    13    15    1
    26    13    34    1
    27    14    16    1
    28    14    35    1
    29    15    17    1
    30    15    36    1
    31    16    37    1
    32    17    38    1
    33    17    39    1
    34    18    19   ar
    35    18    20   ar
    36    19    21   ar
    37    19    44    1
    38    20    23   ar
    39    21    22   ar
    40    22    23   ar
    41    22    24   ar
    42    24    26   ar
    43    25    26   ar
    44    25    27    1
    45    26    45    1
    46    27    28   ar
    47    27    29   ar
    48    28    30   ar
    49    28    48    1
    50    29    31   ar
    51    29    49    1
    52    30    32   ar
    53    30    50    1
    54    31    32   ar
    55    31    51    1
