@<TRIPOS>MOLECULE
IMPHY014249
 19 20 0 0 0
SMALL
GASTEIGER

@<TRIPOS>ATOM
      1 O           2.8660   -1.5173    0.0000 O.2     1  UNL1       -0.2917
      2 C           3.7320   -0.0173    0.0000 C.ar    1  UNL1        0.0248
      3 C           3.7320    0.9827    0.0000 C.ar    1  UNL1       -0.0148
      4 C           2.0000   -0.0173    0.0000 C.3     1  UNL1        0.0290
      5 C           2.8660   -0.5173    0.0000 C.2     1  UNL1        0.1674
      6 C           2.8660    1.4827    0.0000 C.2     1  UNL1       -0.0574
      7 C           2.0000    0.9827    0.0000 C.2     1  UNL1       -0.0760
      8 C           4.6260   -0.5520    0.0000 C.ar    1  UNL1       -0.0507
      9 C           4.6260    1.5173    0.0000 C.ar    1  UNL1       -0.0539
     10 C           5.5321   -0.0381    0.0000 C.ar    1  UNL1       -0.0611
     11 C           5.5321    1.0035    0.0000 C.ar    1  UNL1       -0.0612
     12 H           1.3894    0.0903    0.0000 H       1  UNL1        0.0388
     13 H           1.7880   -0.5999    0.0000 H       1  UNL1        0.0388
     14 H           2.8660    2.1027    0.0000 H       1  UNL1        0.0621
     15 H           1.4631    1.2927    0.0000 H       1  UNL1        0.0576
     16 H           4.6188   -1.1720    0.0000 H       1  UNL1        0.0625
     17 H           4.6188    2.1373    0.0000 H       1  UNL1        0.0624
     18 H           6.0678   -0.3502    0.0000 H       1  UNL1        0.0618
     19 H           6.0678    1.3156    0.0000 H       1  UNL1        0.0618
@<TRIPOS>BOND
     1     1     5    2
     2     2     3   ar
     3     2     5    1
     4     2     8   ar
     5     3     6    1
     6     3     9   ar
     7     4     5    1
     8     4     7    1
     9     4    12    1
    10     4    13    1
    11     6     7    2
    12     6    14    1
    13     7    15    1
    14     8    10   ar
    15     8    16    1
    16     9    11   ar
    17     9    17    1
    18    10    11   ar
    19    10    18    1
    20    11    19    1
