@<TRIPOS>MOLECULE
IMPHY010758
 20 21 0 0 0
SMALL
GASTEIGER

@<TRIPOS>ATOM
      1 O           5.4641   -1.0173    0.0000 O.3     1  UNL1       -0.2100
      2 O           6.3580    0.4480    0.0000 O.2     1  UNL1       -0.4212
      3 O           2.8660    0.4827    0.0000 O.3     1  UNL1       -0.4716
      4 O           2.8660   -0.5173    0.0000 O.2     1  UNL1       -0.2930
      5 O           8.1282    0.4585    0.0000 O.2     1  UNL1       -0.2445
      6 C           4.5981   -0.5173    0.0000 C.3     1  UNL1        0.2367
      7 C           4.5981    0.4827    0.0000 C.ar    1  UNL1        0.0834
      8 C           3.7321   -2.0173    0.0000 C.3     1  UNL1        0.0606
      9 C           3.7321   -1.0173    0.0000 C.2     1  UNL1        0.1848
     10 C           5.4641    0.9827    0.0000 C.ar    1  UNL1        0.1503
     11 C           3.7321    0.9827    0.0000 C.ar    1  UNL1        0.1404
     12 C           5.4641    1.9827    0.0000 C.ar    1  UNL1        0.0349
     13 C           4.5981   -2.5173    0.0000 C.3     1  UNL1        0.0079
     14 C           2.8660   -2.5173    0.0000 C.3     1  UNL1        0.0079
     15 C           3.7321    1.9827    0.0000 C.ar    1  UNL1        0.0369
     16 C           4.5981    2.4827    0.0000 C.ar    1  UNL1        0.0061
     17 C           6.3580    2.5173    0.0000 C.ar    1  UNL1        0.0097
     18 C           7.2641    2.0035    0.0000 C.ar    1  UNL1        0.0824
     19 C           7.2641    0.9619    0.0000 C.ar    1  UNL1        0.3459
     20 C           2.0000    0.9827    0.0000 C.3     1  UNL1        0.2525
@<TRIPOS>BOND
     1     1     6    1
     2     2    10   ar
     3     2    19   ar
     4     3    11    1
     5     3    20    1
     6     4     9    2
     7     5    19    2
     8     6     7    1
     9     6     9    1
    10     7    10   ar
    11     7    11   ar
    12     8     9    1
    13     8    13    1
    14     8    14    1
    15    10    12   ar
    16    11    15   ar
    17    12    16   ar
    18    12    17   ar
    19    15    16   ar
    20    17    18   ar
    21    18    19   ar
