@<TRIPOS>MOLECULE
IMPHY015748
 43 42 0 0 0
SMALL
GASTEIGER

@<TRIPOS>ATOM
      1 O           5.4641    0.4400    0.0000 O.3     1  UNL1       -0.4616
      2 O           6.3301   -1.0600    0.0000 O.2     1  UNL1       -0.2456
      3 C           2.8660   -0.0600    0.0000 C.3     1  UNL1       -0.0436
      4 C           3.7320    0.4400    0.0000 C.3     1  UNL1       -0.0162
      5 C           4.5981   -0.0600    0.0000 C.3     1  UNL1        0.0930
      6 C           2.0000    0.4400    0.0000 C.3     1  UNL1       -0.0626
      7 C           2.8660   -1.0600    0.0000 C.3     1  UNL1       -0.0626
      8 C           8.9282    0.4400    0.0000 C.3     1  UNL1       -0.0281
      9 C           9.7942   -0.0600    0.0000 C.3     1  UNL1       -0.0308
     10 C           8.0622   -0.0600    0.0000 C.2     1  UNL1       -0.0656
     11 C           7.1962    0.4400    0.0000 C.2     1  UNL1        0.0215
     12 C          10.6603    0.4400    0.0000 C.2     1  UNL1       -0.0850
     13 C           6.3301   -0.0600    0.0000 C.2     1  UNL1        0.3319
     14 C           8.0622   -1.0600    0.0000 C.3     1  UNL1       -0.0433
     15 C          11.5263   -0.0600    0.0000 C.2     1  UNL1       -0.0796
     16 C          12.3923    0.4400    0.0000 C.3     1  UNL1       -0.0440
     17 C          11.5263   -1.0600    0.0000 C.3     1  UNL1       -0.0440
     18 H           2.8660    0.5600    0.0000 H       1  UNL1        0.0297
     19 H           4.1306    0.9149    0.0000 H       1  UNL1        0.0300
     20 H           3.3335    0.9149    0.0000 H       1  UNL1        0.0300
     21 H           4.1996   -0.5349    0.0000 H       1  UNL1        0.0697
     22 H           4.9966   -0.5349    0.0000 H       1  UNL1        0.0697
     23 H           2.3100    0.9769    0.0000 H       1  UNL1        0.0232
     24 H           1.4631    0.7500    0.0000 H       1  UNL1        0.0232
     25 H           1.6900   -0.0969    0.0000 H       1  UNL1        0.0232
     26 H           2.2460   -1.0600    0.0000 H       1  UNL1        0.0232
     27 H           2.8660   -1.6800    0.0000 H       1  UNL1        0.0232
     28 H           3.4860   -1.0600    0.0000 H       1  UNL1        0.0232
     29 H           9.3267    0.9149    0.0000 H       1  UNL1        0.0313
     30 H           8.5297    0.9149    0.0000 H       1  UNL1        0.0313
     31 H           9.3957   -0.5349    0.0000 H       1  UNL1        0.0310
     32 H          10.1928   -0.5349    0.0000 H       1  UNL1        0.0310
     33 H          10.6603    1.0600    0.0000 H       1  UNL1        0.0572
     34 H           7.1962    1.0600    0.0000 H       1  UNL1        0.0688
     35 H           7.4422   -1.0600    0.0000 H       1  UNL1        0.0274
     36 H           8.0622   -1.6800    0.0000 H       1  UNL1        0.0274
     37 H           8.6822   -1.0600    0.0000 H       1  UNL1        0.0274
     38 H          12.7023   -0.0969    0.0000 H       1  UNL1        0.0274
     39 H          12.9292    0.7500    0.0000 H       1  UNL1        0.0274
     40 H          12.0823    0.9769    0.0000 H       1  UNL1        0.0274
     41 H          10.9063   -1.0600    0.0000 H       1  UNL1        0.0274
     42 H          11.5263   -1.6800    0.0000 H       1  UNL1        0.0274
     43 H          12.1463   -1.0600    0.0000 H       1  UNL1        0.0274
@<TRIPOS>BOND
     1     1     5    1
     2     1    13    1
     3     2    13    2
     4     3     4    1
     5     3     6    1
     6     3     7    1
     7     3    18    1
     8     4     5    1
     9     4    19    1
    10     4    20    1
    11     5    21    1
    12     5    22    1
    13     6    23    1
    14     6    24    1
    15     6    25    1
    16     7    26    1
    17     7    27    1
    18     7    28    1
    19     8     9    1
    20     8    10    1
    21     8    29    1
    22     8    30    1
    23     9    12    1
    24     9    31    1
    25     9    32    1
    26    10    11    2
    27    10    14    1
    28    11    13    1
    29    11    34    1
    30    12    15    2
    31    12    33    1
    32    14    35    1
    33    14    36    1
    34    14    37    1
    35    15    16    1
    36    15    17    1
    37    16    38    1
    38    16    39    1
    39    16    40    1
    40    17    41    1
    41    17    42    1
    42    17    43    1
