@<TRIPOS>MOLECULE
IMPHY013532
 38 40 0 0 0
SMALL
GASTEIGER

@<TRIPOS>ATOM
      1 O           2.2097   -1.0482    0.0000 O.2     1  UNL1       -0.2964
      2 C           4.5340   -0.7634    0.0000 C.3     1  UNL1       -0.0088
      3 C           3.6331   -0.3296    0.0000 C.3     1  UNL1        0.0312
      4 C           4.1003   -1.6737    0.0000 C.3     1  UNL1        0.0446
      5 C           3.4105    0.6454    0.0000 C.3     1  UNL1       -0.0074
      6 C           4.0340    1.4272    0.0000 C.3     1  UNL1       -0.0280
      7 C           3.1918   -1.2362    0.0000 C.2     1  UNL1        0.1451
      8 C           5.4350   -0.3296    0.0000 C.3     1  UNL1       -0.0460
      9 C           2.6086   -1.6337    0.0000 C.2     1  UNL1       -0.0655
     10 C           5.0340    1.4272    0.0000 C.3     1  UNL1       -0.0473
     11 C           2.1831   -0.2034    0.0000 C.2     1  UNL1       -0.0801
     12 C           5.6575    0.6454    0.0000 C.3     1  UNL1       -0.0520
     13 C           5.4350   -1.1973    0.0000 C.3     1  UNL1       -0.0580
     14 C           4.0340    2.4272    0.0000 C.3     1  UNL1       -0.0593
     15 C           3.2522    2.0507    0.0000 C.3     1  UNL1       -0.0593
     16 C           2.0000   -2.4272    0.0000 C.3     1  UNL1       -0.0431
     17 H           3.0171   -0.2589    0.0000 H       1  UNL1        0.0389
     18 H           4.4242   -2.2024    0.0000 H       1  UNL1        0.0428
     19 H           2.9873    1.0985    0.0000 H       1  UNL1        0.0355
     20 H           5.5730   -0.9340    0.0000 H       1  UNL1        0.0271
     21 H           6.0550   -0.3296    0.0000 H       1  UNL1        0.0271
     22 H           5.5926    1.6962    0.0000 H       1  UNL1        0.0271
     23 H           4.8961    2.0316    0.0000 H       1  UNL1        0.0271
     24 H           1.5983    0.0024    0.0000 H       1  UNL1        0.0575
     25 H           6.2161    0.3764    0.0000 H       1  UNL1        0.0266
     26 H           6.0441    1.1301    0.0000 H       1  UNL1        0.0266
     27 H           5.1660   -1.7559    0.0000 H       1  UNL1        0.0236
     28 H           5.9936   -1.4663    0.0000 H       1  UNL1        0.0236
     29 H           5.7040   -0.6387    0.0000 H       1  UNL1        0.0236
     30 H           4.6540    2.4272    0.0000 H       1  UNL1        0.0235
     31 H           4.0340    3.0472    0.0000 H       1  UNL1        0.0235
     32 H           3.4140    2.4272    0.0000 H       1  UNL1        0.0235
     33 H           3.6388    2.5354    0.0000 H       1  UNL1        0.0235
     34 H           2.7675    2.4372    0.0000 H       1  UNL1        0.0235
     35 H           2.8656    1.5660    0.0000 H       1  UNL1        0.0235
     36 H           1.5080   -2.0499    0.0000 H       1  UNL1        0.0275
     37 H           1.6227   -2.9192    0.0000 H       1  UNL1        0.0275
     38 H           2.4920   -2.8045    0.0000 H       1  UNL1        0.0275
@<TRIPOS>BOND
     1     1     7    2
     2     2     3    1
     3     2     4    1
     4     2     8    1
     5     2    13    1
     6     3     5    1
     7     3     7    1
     8     3    17    1
     9     4     7    1
    10     4     9    1
    11     4    18    1
    12     5     6    1
    13     5    11    1
    14     5    19    1
    15     6    10    1
    16     6    14    1
    17     6    15    1
    18     8    12    1
    19     8    20    1
    20     8    21    1
    21     9    11    2
    22     9    16    1
    23    10    12    1
    24    10    22    1
    25    10    23    1
    26    11    24    1
    27    12    25    1
    28    12    26    1
    29    13    27    1
    30    13    28    1
    31    13    29    1
    32    14    30    1
    33    14    31    1
    34    14    32    1
    35    15    33    1
    36    15    34    1
    37    15    35    1
    38    16    36    1
    39    16    37    1
    40    16    38    1
