@<TRIPOS>MOLECULE
IMPHY007886
 145 152 0 0 0
SMALL
GASTEIGER

@<TRIPOS>ATOM
      1 O           6.8671   -3.1527    0.0000 O.3     1  UNL1       -0.3449
      2 O           9.6611    3.9258    0.0000 O.3     1  UNL1       -0.3906
      3 O           8.6209    6.1267    0.0000 O.3     1  UNL1       -0.4318
      4 O           9.6152    5.3118    0.0000 O.2     1  UNL1       -0.2500
      5 O           5.1350   -3.1527    0.0000 O.3     1  UNL1       -0.3405
      6 O           6.8671   -5.1527    0.0000 O.3     1  UNL1       -0.3378
      7 O          10.3528    6.1467    0.0000 O.3     1  UNL1       -0.3312
      8 O           5.1350   -6.1527    0.0000 O.3     1  UNL1       -0.3864
      9 O           3.4030   -5.1527    0.0000 O.3     1  UNL1       -0.3865
     10 O           8.5977    8.1266    0.0000 O.3     1  UNL1       -0.3829
     11 O          10.3181    9.1465    0.0000 O.3     1  UNL1       -0.3864
     12 O           6.0010   -6.6527    0.0000 O.3     1  UNL1       -0.3405
     13 O           2.5369   -3.6527    0.0000 O.3     1  UNL1       -0.3924
     14 O          12.0616    8.1666    0.0000 O.3     1  UNL1       -0.3865
     15 O           8.5991   -6.1527    0.0000 O.3     1  UNL1       -0.3841
     16 O          12.9449    6.6768    0.0000 O.3     1  UNL1       -0.3924
     17 O           8.5991   -8.1527    0.0000 O.3     1  UNL1       -0.3864
     18 O           6.8671   -9.1527    0.0000 O.3     1  UNL1       -0.3865
     19 O           4.2690   -7.6527    0.0000 O.3     1  UNL1       -0.3924
     20 C           7.7681    1.5475    0.0000 C.3     1  UNL1       -0.0193
     21 C           6.9040    1.0442    0.0000 C.3     1  UNL1       -0.0257
     22 C           6.8920    0.0026    0.0000 C.3     1  UNL1       -0.0250
     23 C           7.7643    2.5475    0.0000 C.3     1  UNL1       -0.0028
     24 C           7.7920   -0.5217    0.0000 C.3     1  UNL1       -0.0278
     25 C           8.6801    1.0442    0.0000 C.3     1  UNL1       -0.0463
     26 C           8.6921    0.0026    0.0000 C.3     1  UNL1       -0.0486
     27 C           7.8046   -1.6066    0.0000 C.3     1  UNL1       -0.0052
     28 C           6.8963    3.0442    0.0000 C.2     1  UNL1       -0.0627
     29 C           6.8762    4.0856    0.0000 C.3     1  UNL1       -0.0007
     30 C           6.0361    1.5408    0.0000 C.3     1  UNL1       -0.0306
     31 C           5.9421   -0.5217    0.0000 C.3     1  UNL1       -0.0447
     32 C           8.6723    3.0578    0.0000 C.3     1  UNL1       -0.0162
     33 C           7.7722    4.6168    0.0000 C.3     1  UNL1        0.1000
     34 C           8.6763    4.0995    0.0000 C.3     1  UNL1        0.0723
     35 C           8.7522    1.7249    0.0000 C.3     1  UNL1       -0.0585
     36 C           6.8671   -2.1527    0.0000 C.3     1  UNL1        0.0672
     37 C           6.0322    2.5408    0.0000 C.2     1  UNL1       -0.0836
     38 C           6.0279    0.5059    0.0000 C.3     1  UNL1       -0.0590
     39 C           5.9295   -1.6066    0.0000 C.3     1  UNL1       -0.0255
     40 C           8.7497    2.3776    0.0000 C.3     1  UNL1       -0.0552
     41 C           5.9223    4.6025    0.0000 C.3     1  UNL1       -0.0402
     42 C           7.7764    5.7018    0.0000 C.3     1  UNL1       -0.0338
     43 C           5.9014    5.6873    0.0000 C.3     1  UNL1       -0.0343
     44 C           8.8046   -1.5989    0.0000 C.3     1  UNL1       -0.0572
     45 C           8.3113   -2.4688    0.0000 C.3     1  UNL1       -0.0572
     46 C           6.8347    6.2406    0.0000 C.3     1  UNL1       -0.0467
     47 C           8.6324    5.1268    0.0000 C.2     1  UNL1        0.3186
     48 C           5.3881    6.5455    0.0000 C.3     1  UNL1       -0.0598
     49 C           4.9015    5.6719    0.0000 C.3     1  UNL1       -0.0598
     50 C           6.0010   -3.6527    0.0000 C.3     1  UNL1        0.1886
     51 C           6.0010   -4.6527    0.0000 C.3     1  UNL1        0.1406
     52 C           9.4810    6.6367    0.0000 C.3     1  UNL1        0.2337
     53 C           5.1350   -5.1527    0.0000 C.3     1  UNL1        0.1144
     54 C           4.2690   -3.6527    0.0000 C.3     1  UNL1        0.1130
     55 C           4.2690   -4.6527    0.0000 C.3     1  UNL1        0.1119
     56 C           9.4695    7.6366    0.0000 C.3     1  UNL1        0.1455
     57 C          10.3297    8.1466    0.0000 C.3     1  UNL1        0.1152
     58 C          11.2130    6.6567    0.0000 C.3     1  UNL1        0.1140
     59 C           3.4030   -3.1527    0.0000 C.3     1  UNL1        0.0730
     60 C          11.2014    7.6566    0.0000 C.3     1  UNL1        0.1120
     61 C           6.8671   -6.1527    0.0000 C.3     1  UNL1        0.1885
     62 C           7.7331   -6.6527    0.0000 C.3     1  UNL1        0.1341
     63 C          12.0847    6.1668    0.0000 C.3     1  UNL1        0.0731
     64 C           7.7331   -7.6527    0.0000 C.3     1  UNL1        0.1141
     65 C           6.0010   -7.6527    0.0000 C.3     1  UNL1        0.1130
     66 C           6.8671   -8.1527    0.0000 C.3     1  UNL1        0.1119
     67 C           5.1350   -8.1527    0.0000 C.3     1  UNL1        0.0730
     68 H           7.6385    0.6163    0.0000 H       1  UNL1        0.0315
     69 H           8.5314   -0.9410    0.0000 H       1  UNL1        0.0312
     70 H           9.2921    0.9451    0.0000 H       1  UNL1        0.0271
     71 H           8.8824    1.6302    0.0000 H       1  UNL1        0.0271
     72 H           8.9079   -0.5786    0.0000 H       1  UNL1        0.0268
     73 H           9.3017    0.1158    0.0000 H       1  UNL1        0.0268
     74 H           6.1502    3.6437    0.0000 H       1  UNL1        0.0357
     75 H           5.4251    1.6461    0.0000 H       1  UNL1        0.0310
     76 H           5.8263    0.9574    0.0000 H       1  UNL1        0.0310
     77 H           5.7398    0.0644    0.0000 H       1  UNL1        0.0271
     78 H           5.3300   -0.6207    0.0000 H       1  UNL1        0.0271
     79 H           8.8791    2.4734    0.0000 H       1  UNL1        0.0299
     80 H           9.2836    3.1616    0.0000 H       1  UNL1        0.0299
     81 H           8.8872    4.6825    0.0000 H       1  UNL1        0.0605
     82 H           8.8623    1.1148    0.0000 H       1  UNL1        0.0235
     83 H           9.3624    1.8350    0.0000 H       1  UNL1        0.0235
     84 H           8.6422    2.3351    0.0000 H       1  UNL1        0.0235
     85 H           7.4046   -2.4617    0.0000 H       1  UNL1        0.0602
     86 H           5.4941    2.8487    0.0000 H       1  UNL1        0.0572
     87 H           6.3400    1.0417    0.0000 H       1  UNL1        0.0235
     88 H           5.4922    0.8180    0.0000 H       1  UNL1        0.0235
     89 H           5.7158   -0.0298    0.0000 H       1  UNL1        0.0235
     90 H           5.3199   -1.4935    0.0000 H       1  UNL1        0.0290
     91 H           5.7137   -2.1878    0.0000 H       1  UNL1        0.0290
     92 H           8.6444    1.7666    0.0000 H       1  UNL1        0.0238
     93 H           9.3607    2.2723    0.0000 H       1  UNL1        0.0238
     94 H           8.8550    2.9886    0.0000 H       1  UNL1        0.0238
     95 H           5.3095    4.6968    0.0000 H       1  UNL1        0.0276
     96 H           5.7246    4.0149    0.0000 H       1  UNL1        0.0276
     97 H           8.3869    5.5933    0.0000 H       1  UNL1        0.0277
     98 H           7.9877    6.2847    0.0000 H       1  UNL1        0.0277
     99 H           8.8094   -2.2189    0.0000 H       1  UNL1        0.0236
    100 H           9.4246   -1.5941    0.0000 H       1  UNL1        0.0236
    101 H           8.7998   -0.9789    0.0000 H       1  UNL1        0.0236
    102 H           7.7767   -2.7829    0.0000 H       1  UNL1        0.0236
    103 H           8.6254   -3.0033    0.0000 H       1  UNL1        0.0236
    104 H           8.8458   -2.1546    0.0000 H       1  UNL1        0.0236
    105 H           7.2302    6.7182    0.0000 H       1  UNL1        0.0271
    106 H           6.4319    6.7120    0.0000 H       1  UNL1        0.0271
    107 H           9.8732    3.3432    0.0000 H       1  UNL1        0.2098
    108 H           5.9202    6.8638    0.0000 H       1  UNL1        0.0235
    109 H           5.0699    7.0776    0.0000 H       1  UNL1        0.0235
    110 H           4.8560    6.2273    0.0000 H       1  UNL1        0.0235
    111 H           4.8920    6.2918    0.0000 H       1  UNL1        0.0235
    112 H           4.2816    5.6624    0.0000 H       1  UNL1        0.0235
    113 H           4.9111    5.0520    0.0000 H       1  UNL1        0.0235
    114 H           6.0010   -3.0327    0.0000 H       1  UNL1        0.0938
    115 H           6.0010   -5.2727    0.0000 H       1  UNL1        0.0675
    116 H           9.4882    6.0167    0.0000 H       1  UNL1        0.1085
    117 H           4.5981   -5.4627    0.0000 H       1  UNL1        0.0648
    118 H           4.2690   -3.0327    0.0000 H       1  UNL1        0.0647
    119 H           3.7320   -4.3427    0.0000 H       1  UNL1        0.0647
    120 H           8.9362    7.3204    0.0000 H       1  UNL1        0.0683
    121 H           9.7892    8.4504    0.0000 H       1  UNL1        0.0648
    122 H          11.2202    6.0368    0.0000 H       1  UNL1        0.0647
    123 H           3.8015   -2.6778    0.0000 H       1  UNL1        0.0584
    124 H           3.0044   -2.6778    0.0000 H       1  UNL1        0.0584
    125 H          11.1943    8.2766    0.0000 H       1  UNL1        0.0647
    126 H           7.4040   -5.8427    0.0000 H       1  UNL1        0.0938
    127 H           4.5981   -6.4627    0.0000 H       1  UNL1        0.2100
    128 H           3.4030   -5.7727    0.0000 H       1  UNL1        0.2100
    129 H           8.5906    8.7465    0.0000 H       1  UNL1        0.2102
    130 H           8.2700   -6.9627    0.0000 H       1  UNL1        0.0671
    131 H          11.6917    5.6872    0.0000 H       1  UNL1        0.0584
    132 H          12.4887    5.6965    0.0000 H       1  UNL1        0.0584
    133 H          10.8514    9.4627    0.0000 H       1  UNL1        0.2100
    134 H           2.0000   -3.3427    0.0000 H       1  UNL1        0.2095
    135 H           7.7331   -8.2727    0.0000 H       1  UNL1        0.0648
    136 H          12.0544    8.7866    0.0000 H       1  UNL1        0.2100
    137 H           5.4641   -7.3427    0.0000 H       1  UNL1        0.0647
    138 H           6.3301   -8.4627    0.0000 H       1  UNL1        0.0647
    139 H           8.5991   -5.5327    0.0000 H       1  UNL1        0.2101
    140 H          13.4854    6.3730    0.0000 H       1  UNL1        0.2095
    141 H           4.7365   -8.6277    0.0000 H       1  UNL1        0.0584
    142 H           5.5335   -8.6277    0.0000 H       1  UNL1        0.0584
    143 H           8.5991   -8.7727    0.0000 H       1  UNL1        0.2100
    144 H           6.3301   -9.4627    0.0000 H       1  UNL1        0.2100
    145 H           3.7320   -7.9627    0.0000 H       1  UNL1        0.2095
@<TRIPOS>BOND
     1    36     1    1
     2    50     1    1
     3    34     2    1
     4     2   107    1
     5     3    47    1
     6    52     3    1
     7     4    47    2
     8     5    50    1
     9     5    54    1
    10    51     6    1
    11    61     6    1
    12     7    52    1
    13     7    58    1
    14    53     8    1
    15     8   127    1
    16    55     9    1
    17     9   128    1
    18    56    10    1
    19    10   129    1
    20    57    11    1
    21    11   133    1
    22    12    61    1
    23    12    65    1
    24    13    59    1
    25    13   134    1
    26    60    14    1
    27    14   136    1
    28    62    15    1
    29    15   139    1
    30    16    63    1
    31    16   140    1
    32    64    17    1
    33    17   143    1
    34    66    18    1
    35    18   144    1
    36    19    67    1
    37    19   145    1
    38    20    21    1
    39    20    23    1
    40    20    25    1
    41    20    35    1
    42    21    22    1
    43    21    30    1
    44    21    68    1
    45    22    24    1
    46    22    31    1
    47    22    38    1
    48    23    28    1
    49    23    32    1
    50    23    40    1
    51    24    26    1
    52    24    27    1
    53    24    69    1
    54    25    26    1
    55    25    70    1
    56    25    71    1
    57    26    72    1
    58    26    73    1
    59    27    36    1
    60    27    44    1
    61    27    45    1
    62    28    29    1
    63    28    37    2
    64    29    33    1
    65    29    41    1
    66    29    74    1
    67    30    37    1
    68    30    75    1
    69    30    76    1
    70    31    39    1
    71    31    77    1
    72    31    78    1
    73    32    34    1
    74    32    79    1
    75    32    80    1
    76    33    34    1
    77    33    42    1
    78    33    47    1
    79    34    81    1
    80    35    82    1
    81    35    83    1
    82    35    84    1
    83    36    39    1
    84    36    85    1
    85    37    86    1
    86    38    87    1
    87    38    88    1
    88    38    89    1
    89    39    90    1
    90    39    91    1
    91    40    92    1
    92    40    93    1
    93    40    94    1
    94    41    43    1
    95    41    95    1
    96    41    96    1
    97    42    46    1
    98    42    97    1
    99    42    98    1
   100    43    46    1
   101    43    48    1
   102    43    49    1
   103    44    99    1
   104    44   100    1
   105    44   101    1
   106    45   102    1
   107    45   103    1
   108    45   104    1
   109    46   105    1
   110    46   106    1
   111    48   108    1
   112    48   109    1
   113    48   110    1
   114    49   111    1
   115    49   112    1
   116    49   113    1
   117    50    51    1
   118    50   114    1
   119    51    53    1
   120    51   115    1
   121    52    56    1
   122    52   116    1
   123    53    55    1
   124    53   117    1
   125    54    55    1
   126    54    59    1
   127    54   118    1
   128    55   119    1
   129    56    57    1
   130    56   120    1
   131    57    60    1
   132    57   121    1
   133    58    60    1
   134    58    63    1
   135    58   122    1
   136    59   123    1
   137    59   124    1
   138    60   125    1
   139    61    62    1
   140    61   126    1
   141    62    64    1
   142    62   130    1
   143    63   131    1
   144    63   132    1
   145    64    66    1
   146    64   135    1
   147    65    66    1
   148    65    67    1
   149    65   137    1
   150    66   138    1
   151    67   141    1
   152    67   142    1
