@<TRIPOS>MOLECULE
IMPHY016728
 47 48 0 0 0
SMALL
GASTEIGER

@<TRIPOS>ATOM
      1 O           4.5981   -1.0000    0.0000 O.3     1  UNL1       -0.4580
      2 O           6.3301   -1.0000    0.0000 O.2     1  UNL1       -0.2456
      3 C           3.7320   -2.5000    0.0000 C.3     1  UNL1       -0.0015
      4 C           4.5981   -2.0000    0.0000 C.3     1  UNL1        0.1067
      5 C           3.7320   -3.5000    0.0000 C.3     1  UNL1       -0.0464
      6 C           5.4641   -3.5000    0.0000 C.3     1  UNL1       -0.0405
      7 C           5.4641   -2.5000    0.0000 C.3     1  UNL1       -0.0128
      8 C           4.5981   -4.0000    0.0000 C.3     1  UNL1       -0.0500
      9 C           2.8660   -2.0000    0.0000 C.3     1  UNL1       -0.0405
     10 C           6.3301   -4.0000    0.0000 C.3     1  UNL1       -0.0623
     11 C           2.0000   -2.5000    0.0000 C.3     1  UNL1       -0.0623
     12 C           2.8660   -1.0000    0.0000 C.3     1  UNL1       -0.0623
     13 C           5.4641   -0.5000    0.0000 C.2     1  UNL1        0.3322
     14 C           5.4641    0.5000    0.0000 C.2     1  UNL1        0.0231
     15 C           6.3301    1.0000    0.0000 C.2     1  UNL1       -0.0478
     16 C           6.3301    2.0000    0.0000 C.ar    1  UNL1       -0.0248
     17 C           7.1962    2.5000    0.0000 C.ar    1  UNL1       -0.0546
     18 C           5.4641    2.5000    0.0000 C.ar    1  UNL1       -0.0546
     19 C           7.1962    3.5000    0.0000 C.ar    1  UNL1       -0.0612
     20 C           5.4641    3.5000    0.0000 C.ar    1  UNL1       -0.0612
     21 C           6.3301    4.0000    0.0000 C.ar    1  UNL1       -0.0617
     22 H           4.2690   -2.8100    0.0000 H       1  UNL1        0.0339
     23 H           5.1350   -1.6900    0.0000 H       1  UNL1        0.0737
     24 H           3.1215   -3.3923    0.0000 H       1  UNL1        0.0269
     25 H           3.5200   -4.0826    0.0000 H       1  UNL1        0.0269
     26 H           5.4641   -4.1200    0.0000 H       1  UNL1        0.0299
     27 H           6.0747   -2.6077    0.0000 H       1  UNL1        0.0303
     28 H           5.6762   -1.9174    0.0000 H       1  UNL1        0.0303
     29 H           4.1996   -4.4750    0.0000 H       1  UNL1        0.0268
     30 H           4.9966   -4.4750    0.0000 H       1  UNL1        0.0268
     31 H           2.8660   -2.6200    0.0000 H       1  UNL1        0.0299
     32 H           6.0201   -4.5369    0.0000 H       1  UNL1        0.0232
     33 H           6.8671   -4.3100    0.0000 H       1  UNL1        0.0232
     34 H           6.6401   -3.4631    0.0000 H       1  UNL1        0.0232
     35 H           1.6900   -1.9631    0.0000 H       1  UNL1        0.0232
     36 H           1.4631   -2.8100    0.0000 H       1  UNL1        0.0232
     37 H           2.3100   -3.0369    0.0000 H       1  UNL1        0.0232
     38 H           3.4860   -1.0000    0.0000 H       1  UNL1        0.0232
     39 H           2.8660   -0.3800    0.0000 H       1  UNL1        0.0232
     40 H           2.2460   -1.0000    0.0000 H       1  UNL1        0.0232
     41 H           4.9272    0.8100    0.0000 H       1  UNL1        0.0689
     42 H           6.8671    0.6900    0.0000 H       1  UNL1        0.0626
     43 H           7.7331    2.1900    0.0000 H       1  UNL1        0.0623
     44 H           4.9272    2.1900    0.0000 H       1  UNL1        0.0623
     45 H           7.7331    3.8100    0.0000 H       1  UNL1        0.0618
     46 H           4.9272    3.8100    0.0000 H       1  UNL1        0.0618
     47 H           6.3301    4.6200    0.0000 H       1  UNL1        0.0618
@<TRIPOS>BOND
     1     1     4    1
     2     1    13    1
     3     2    13    2
     4     3     4    1
     5     3     5    1
     6     3     9    1
     7     3    22    1
     8     4     7    1
     9     4    23    1
    10     5     8    1
    11     5    24    1
    12     5    25    1
    13     6     7    1
    14     6     8    1
    15     6    10    1
    16     6    26    1
    17     7    27    1
    18     7    28    1
    19     8    29    1
    20     8    30    1
    21     9    11    1
    22     9    12    1
    23     9    31    1
    24    10    32    1
    25    10    33    1
    26    10    34    1
    27    11    35    1
    28    11    36    1
    29    11    37    1
    30    12    38    1
    31    12    39    1
    32    12    40    1
    33    13    14    1
    34    14    15    2
    35    14    41    1
    36    15    16    1
    37    15    42    1
    38    16    17   ar
    39    16    18   ar
    40    17    19   ar
    41    17    43    1
    42    18    20   ar
    43    18    44    1
    44    19    21   ar
    45    19    45    1
    46    20    21   ar
    47    20    46    1
    48    21    47    1
