@<TRIPOS>MOLECULE
IMPHY013685
 38 40 0 0 0
SMALL
GASTEIGER

@<TRIPOS>ATOM
      1 O           4.3198    1.4050    0.0000 O.3     1  UNL1       -0.3886
      2 O           2.5381    0.3945    0.0000 O.3     1  UNL1       -0.3892
      3 O           6.0682   -2.6296    0.0000 O.3     1  UNL1       -0.3836
      4 O           7.8003   -1.6296    0.0000 O.2     1  UNL1       -0.2893
      5 O           8.7202    1.9155    0.0000 O.3     1  UNL1       -0.5065
      6 C           5.2022   -1.1296    0.0000 C.3     1  UNL1        0.0016
      7 C           5.2022   -0.1296    0.0000 C.3     1  UNL1        0.0188
      8 C           4.3083    0.4050    0.0000 C.3     1  UNL1        0.0882
      9 C           4.3083   -1.6643    0.0000 C.3     1  UNL1       -0.0444
     10 C           3.4022   -0.1088    0.0000 C.3     1  UNL1        0.0816
     11 C           3.4022   -1.1504    0.0000 C.3     1  UNL1       -0.0240
     12 C           6.0682   -1.6296    0.0000 C.3     1  UNL1        0.1210
     13 C           6.0682    0.3704    0.0000 C.ar    1  UNL1       -0.0304
     14 C           6.9343   -0.1296    0.0000 C.ar    1  UNL1        0.0270
     15 C           6.9343   -1.1296    0.0000 C.2     1  UNL1        0.1920
     16 C           6.0522    1.4119    0.0000 C.ar    1  UNL1       -0.0512
     17 C           7.8443    0.3772    0.0000 C.ar    1  UNL1       -0.0091
     18 C           6.9502    1.9396    0.0000 C.ar    1  UNL1       -0.0087
     19 C           7.8523    1.4188    0.0000 C.ar    1  UNL1        0.1204
     20 C           6.9464    2.9396    0.0000 C.3     1  UNL1       -0.0362
     21 H           5.2070   -1.7496    0.0000 H       1  UNL1        0.0337
     22 H           5.2070    0.4904    0.0000 H       1  UNL1        0.0379
     23 H           3.7744    0.7202    0.0000 H       1  UNL1        0.0625
     24 H           3.9147   -2.1433    0.0000 H       1  UNL1        0.0270
     25 H           4.7129   -2.1341    0.0000 H       1  UNL1        0.0270
     26 H           2.8647   -0.4178    0.0000 H       1  UNL1        0.0619
     27 H           2.7914   -1.0443    0.0000 H       1  UNL1        0.0291
     28 H           3.1932   -1.7341    0.0000 H       1  UNL1        0.0291
     29 H           6.6052   -1.9396    0.0000 H       1  UNL1        0.0679
     30 H           5.5117    1.7156    0.0000 H       1  UNL1        0.0624
     31 H           3.7865    1.7212    0.0000 H       1  UNL1        0.2099
     32 H           8.3776    0.0610    0.0000 H       1  UNL1        0.0661
     33 H           2.0000    0.0866    0.0000 H       1  UNL1        0.2099
     34 H           6.6052   -2.9396    0.0000 H       1  UNL1        0.2104
     35 H           7.5664    2.9420    0.0000 H       1  UNL1        0.0279
     36 H           6.9440    3.5596    0.0000 H       1  UNL1        0.0279
     37 H           6.3264    2.9372    0.0000 H       1  UNL1        0.0279
     38 H           9.2560    1.6034    0.0000 H       1  UNL1        0.2921
@<TRIPOS>BOND
     1     1     8    1
     2     1    31    1
     3     2    10    1
     4     2    33    1
     5     3    12    1
     6     3    34    1
     7     4    15    2
     8     5    19    1
     9     5    38    1
    10     6     7    1
    11     6     9    1
    12     6    12    1
    13     6    21    1
    14     7     8    1
    15     7    13    1
    16     7    22    1
    17     8    10    1
    18     8    23    1
    19     9    11    1
    20     9    24    1
    21     9    25    1
    22    10    11    1
    23    10    26    1
    24    11    27    1
    25    11    28    1
    26    12    15    1
    27    12    29    1
    28    13    14   ar
    29    13    16   ar
    30    14    15    1
    31    14    17   ar
    32    16    18   ar
    33    16    30    1
    34    17    19   ar
    35    17    32    1
    36    18    19   ar
    37    18    20    1
    38    20    35    1
    39    20    36    1
    40    20    37    1
