@<TRIPOS>MOLECULE
IMPHY016935
 42 44 0 0 0
SMALL
GASTEIGER

@<TRIPOS>ATOM
      1 O           3.8252   -1.3918    0.0000 O.3     1  UNL1       -0.3877
      2 C           4.5037   -0.8508    0.0000 C.3     1  UNL1       -0.0029
      3 C           5.3302   -1.4146    0.0000 C.3     1  UNL1       -0.0260
      4 C           5.4047   -0.4169    0.0000 C.3     1  UNL1       -0.0296
      5 C           3.6027   -0.4169    0.0000 C.3     1  UNL1        0.0752
      6 C           3.3802    0.5580    0.0000 C.3     1  UNL1       -0.0090
      7 C           5.6272    0.5580    0.0000 C.3     1  UNL1       -0.0491
      8 C           2.7480   -0.9246    0.0000 C.3     1  UNL1       -0.0144
      9 C           4.0037    1.3398    0.0000 C.3     1  UNL1       -0.0384
     10 C           2.3899    0.6446    0.0000 C.3     1  UNL1       -0.0470
     11 C           5.0037    1.3398    0.0000 C.3     1  UNL1       -0.0498
     12 C           6.3274   -1.4893    0.0000 C.3     1  UNL1       -0.0592
     13 C           4.7668   -2.2408    0.0000 C.3     1  UNL1       -0.0592
     14 C           2.0000   -0.2699    0.0000 C.3     1  UNL1       -0.0475
     15 C           2.6567   -1.9204    0.0000 C.3     1  UNL1       -0.0598
     16 C           3.5698    2.2408    0.0000 C.3     1  UNL1       -0.0621
     17 H           4.1936   -1.3877    0.0000 H       1  UNL1        0.0337
     18 H           6.0178   -0.5092    0.0000 H       1  UNL1        0.0310
     19 H           3.9847    0.4201    0.0000 H       1  UNL1        0.0331
     20 H           6.1858    0.2890    0.0000 H       1  UNL1        0.0268
     21 H           6.0138    1.0428    0.0000 H       1  UNL1        0.0268
     22 H           3.2723   -1.2556    0.0000 H       1  UNL1        0.0326
     23 H           3.3876    1.4093    0.0000 H       1  UNL1        0.0302
     24 H           2.5085    1.2531    0.0000 H       1  UNL1        0.0269
     25 H           1.7972    0.8264    0.0000 H       1  UNL1        0.0269
     26 H           5.5623    1.6089    0.0000 H       1  UNL1        0.0268
     27 H           4.8657    1.9443    0.0000 H       1  UNL1        0.0268
     28 H           6.2810   -2.1076    0.0000 H       1  UNL1        0.0235
     29 H           6.9456   -1.5356    0.0000 H       1  UNL1        0.0235
     30 H           6.3737   -0.8710    0.0000 H       1  UNL1        0.0235
     31 H           4.2546   -1.8916    0.0000 H       1  UNL1        0.0235
     32 H           4.4176   -2.7531    0.0000 H       1  UNL1        0.0235
     33 H           5.2791   -2.5901    0.0000 H       1  UNL1        0.0235
     34 H           1.4584    0.0319    0.0000 H       1  UNL1        0.0269
     35 H           1.6430   -0.7768    0.0000 H       1  UNL1        0.0269
     36 H           3.3708   -1.8136    0.0000 H       1  UNL1        0.2102
     37 H           2.0393   -1.8637    0.0000 H       1  UNL1        0.0233
     38 H           2.6000   -2.5378    0.0000 H       1  UNL1        0.0233
     39 H           3.2741   -1.9770    0.0000 H       1  UNL1        0.0233
     40 H           4.1284    2.5098    0.0000 H       1  UNL1        0.0233
     41 H           3.3008    2.7994    0.0000 H       1  UNL1        0.0233
     42 H           3.0112    1.9718    0.0000 H       1  UNL1        0.0233
@<TRIPOS>BOND
     1     1     5    1
     2     1    36    1
     3     2     3    1
     4     2     4    1
     5     2     5    1
     6     2    17    1
     7     3     4    1
     8     3    12    1
     9     3    13    1
    10     4     7    1
    11     4    18    1
    12     5     6    1
    13     5     8    1
    14     6     9    1
    15     6    10    1
    16     6    19    1
    17     7    11    1
    18     7    20    1
    19     7    21    1
    20     8    14    1
    21     8    15    1
    22     8    22    1
    23     9    11    1
    24     9    16    1
    25     9    23    1
    26    10    14    1
    27    10    24    1
    28    10    25    1
    29    11    26    1
    30    11    27    1
    31    12    28    1
    32    12    29    1
    33    12    30    1
    34    13    31    1
    35    13    32    1
    36    13    33    1
    37    14    34    1
    38    14    35    1
    39    15    37    1
    40    15    38    1
    41    15    39    1
    42    16    40    1
    43    16    41    1
    44    16    42    1
