@<TRIPOS>MOLECULE
IMPHY006748
 140 147 0 0 0
SMALL
GASTEIGER

@<TRIPOS>ATOM
      1 O           6.8671   -4.3147    0.0000 O.3     1  UNL1       -0.3418
      2 O           5.0597   -3.2618    0.0000 O.3     1  UNL1       -0.3892
      3 O           8.6209    4.9648    0.0000 O.3     1  UNL1       -0.4318
      4 O           9.3112   -3.6230    0.0000 O.3     1  UNL1       -0.4802
      5 O           7.8180   -4.5005    0.0000 O.2     1  UNL1       -0.2503
      6 O           9.5042    3.4749    0.0000 O.2     1  UNL1       -0.2501
      7 O           5.1350   -4.3147    0.0000 O.3     1  UNL1       -0.3405
      8 O           9.4695    6.4747    0.0000 O.3     1  UNL1       -0.3368
      9 O           6.8671   -6.3147    0.0000 O.3     1  UNL1       -0.3841
     10 O           5.1350   -7.3147    0.0000 O.3     1  UNL1       -0.3864
     11 O          10.3644    3.9849    0.0000 O.3     1  UNL1       -0.3366
     12 O           3.4030   -6.3147    0.0000 O.3     1  UNL1       -0.3865
     13 O          12.0847    5.0048    0.0000 O.3     1  UNL1       -0.3864
     14 O           2.5369   -4.8147    0.0000 O.3     1  UNL1       -0.3924
     15 O          12.0616    7.0047    0.0000 O.3     1  UNL1       -0.3869
     16 O          12.0963    4.0049    0.0000 O.3     1  UNL1       -0.3431
     17 O          10.3875    1.9850    0.0000 O.3     1  UNL1       -0.3841
     18 O          12.1310    1.0051    0.0000 O.3     1  UNL1       -0.3864
     19 O          13.8514    2.0251    0.0000 O.3     1  UNL1       -0.3866
     20 C           7.7681    0.3856    0.0000 C.3     1  UNL1       -0.0194
     21 C           6.9040   -0.1178    0.0000 C.3     1  UNL1       -0.0256
     22 C           6.8920   -1.1593    0.0000 C.3     1  UNL1       -0.0221
     23 C           7.7643    1.3856    0.0000 C.3     1  UNL1       -0.0051
     24 C           7.7920   -1.6836    0.0000 C.3     1  UNL1       -0.0172
     25 C           8.6801   -0.1178    0.0000 C.3     1  UNL1       -0.0463
     26 C           6.8963    1.8822    0.0000 C.2     1  UNL1       -0.0629
     27 C           8.6921   -1.1593    0.0000 C.3     1  UNL1       -0.0481
     28 C           7.8046   -2.7685    0.0000 C.3     1  UNL1        0.0966
     29 C           6.8762    2.9236    0.0000 C.3     1  UNL1       -0.0031
     30 C           6.0361    0.3789    0.0000 C.3     1  UNL1       -0.0306
     31 C           5.9421   -1.6836    0.0000 C.3     1  UNL1       -0.0184
     32 C           8.6723    1.8959    0.0000 C.3     1  UNL1       -0.0424
     33 C           7.7722    3.4549    0.0000 C.3     1  UNL1        0.0744
     34 C           8.7522    0.5630    0.0000 C.3     1  UNL1       -0.0585
     35 C           8.6763    2.9375    0.0000 C.3     1  UNL1       -0.0359
     36 C           6.8671   -3.3147    0.0000 C.3     1  UNL1        0.1033
     37 C           6.0322    1.3789    0.0000 C.2     1  UNL1       -0.0836
     38 C           5.9295   -2.7685    0.0000 C.3     1  UNL1        0.0830
     39 C           6.0279   -0.6560    0.0000 C.3     1  UNL1       -0.0589
     40 C           8.7497    1.2157    0.0000 C.3     1  UNL1       -0.0553
     41 C           5.9223    3.4406    0.0000 C.3     1  UNL1       -0.0403
     42 C           7.7764    4.5399    0.0000 C.3     1  UNL1       -0.0362
     43 C           5.9014    4.5254    0.0000 C.3     1  UNL1       -0.0343
     44 C           6.8347    5.0787    0.0000 C.3     1  UNL1       -0.0468
     45 C           8.8046   -2.7608    0.0000 C.3     1  UNL1       -0.0466
     46 C           8.3113   -3.6307    0.0000 C.2     1  UNL1        0.3136
     47 C           8.6324    3.9648    0.0000 C.2     1  UNL1        0.3161
     48 C           5.3881    5.3836    0.0000 C.3     1  UNL1       -0.0598
     49 C           4.9015    4.5100    0.0000 C.3     1  UNL1       -0.0598
     50 C           6.0010   -4.8147    0.0000 C.3     1  UNL1        0.1884
     51 C           6.0010   -5.8147    0.0000 C.3     1  UNL1        0.1341
     52 C           9.4810    5.4748    0.0000 C.3     1  UNL1        0.2338
     53 C           5.1350   -6.3147    0.0000 C.3     1  UNL1        0.1141
     54 C           4.2690   -4.8147    0.0000 C.3     1  UNL1        0.1130
     55 C           4.2690   -5.8147    0.0000 C.3     1  UNL1        0.1119
     56 C          10.3528    4.9848    0.0000 C.3     1  UNL1        0.1520
     57 C          11.2130    5.4948    0.0000 C.3     1  UNL1        0.1152
     58 C           3.4030   -4.3147    0.0000 C.3     1  UNL1        0.0730
     59 C          10.3297    6.9847    0.0000 C.3     1  UNL1        0.0802
     60 C          11.2014    6.4947    0.0000 C.3     1  UNL1        0.1070
     61 C          11.2361    3.4949    0.0000 C.3     1  UNL1        0.1885
     62 C          11.2477    2.4950    0.0000 C.3     1  UNL1        0.1341
     63 C          12.1194    2.0050    0.0000 C.3     1  UNL1        0.1140
     64 C          12.9681    3.5150    0.0000 C.3     1  UNL1        0.0873
     65 C          12.9796    2.5150    0.0000 C.3     1  UNL1        0.1095
     66 C          13.8282    4.0249    0.0000 C.3     1  UNL1       -0.0361
     67 H           7.6385   -0.5456    0.0000 H       1  UNL1        0.0315
     68 H           8.5314   -2.1029    0.0000 H       1  UNL1        0.0317
     69 H           9.2921   -0.2168    0.0000 H       1  UNL1        0.0271
     70 H           8.8824    0.4683    0.0000 H       1  UNL1        0.0271
     71 H           8.9079   -1.7406    0.0000 H       1  UNL1        0.0269
     72 H           9.3017   -1.0462    0.0000 H       1  UNL1        0.0269
     73 H           6.1502    2.4817    0.0000 H       1  UNL1        0.0357
     74 H           5.4251    0.4842    0.0000 H       1  UNL1        0.0310
     75 H           5.8263   -0.2045    0.0000 H       1  UNL1        0.0310
     76 H           5.7398   -1.0976    0.0000 H       1  UNL1        0.0296
     77 H           5.3300   -1.7826    0.0000 H       1  UNL1        0.0296
     78 H           8.8791    1.3114    0.0000 H       1  UNL1        0.0274
     79 H           9.2836    1.9996    0.0000 H       1  UNL1        0.0274
     80 H           8.8623   -0.0472    0.0000 H       1  UNL1        0.0235
     81 H           9.3624    0.6730    0.0000 H       1  UNL1        0.0235
     82 H           8.6422    1.1732    0.0000 H       1  UNL1        0.0235
     83 H           9.2868    2.8291    0.0000 H       1  UNL1        0.0276
     84 H           8.8876    3.5204    0.0000 H       1  UNL1        0.0276
     85 H           7.4046   -3.6236    0.0000 H       1  UNL1        0.0634
     86 H           5.4941    1.6868    0.0000 H       1  UNL1        0.0572
     87 H           5.3956   -2.4534    0.0000 H       1  UNL1        0.0619
     88 H           6.3400   -0.1203    0.0000 H       1  UNL1        0.0235
     89 H           5.4922   -0.3439    0.0000 H       1  UNL1        0.0235
     90 H           5.7158   -1.1917    0.0000 H       1  UNL1        0.0235
     91 H           8.6444    0.6047    0.0000 H       1  UNL1        0.0238
     92 H           9.3607    1.1104    0.0000 H       1  UNL1        0.0238
     93 H           8.8550    1.8267    0.0000 H       1  UNL1        0.0238
     94 H           5.3095    3.5349    0.0000 H       1  UNL1        0.0276
     95 H           5.7246    2.8530    0.0000 H       1  UNL1        0.0276
     96 H           8.3869    4.4314    0.0000 H       1  UNL1        0.0276
     97 H           7.9877    5.1227    0.0000 H       1  UNL1        0.0276
     98 H           7.2302    5.5562    0.0000 H       1  UNL1        0.0271
     99 H           6.4319    5.5501    0.0000 H       1  UNL1        0.0271
    100 H           8.8094   -3.3808    0.0000 H       1  UNL1        0.0241
    101 H           9.4246   -2.7560    0.0000 H       1  UNL1        0.0241
    102 H           8.7998   -2.1408    0.0000 H       1  UNL1        0.0241
    103 H           4.8920    5.1299    0.0000 H       1  UNL1        0.0235
    104 H           4.2816    4.5004    0.0000 H       1  UNL1        0.0235
    105 H           5.9202    5.7018    0.0000 H       1  UNL1        0.0235
    106 H           5.0699    5.9157    0.0000 H       1  UNL1        0.0235
    107 H           4.8560    5.0654    0.0000 H       1  UNL1        0.0235
    108 H           4.9111    3.8900    0.0000 H       1  UNL1        0.0235
    109 H           4.5251   -2.9477    0.0000 H       1  UNL1        0.2099
    110 H           6.0010   -4.1947    0.0000 H       1  UNL1        0.0938
    111 H           9.6254   -4.1575    0.0000 H       1  UNL1        0.2951
    112 H           6.0010   -6.4347    0.0000 H       1  UNL1        0.0671
    113 H           9.4882    4.8548    0.0000 H       1  UNL1        0.1085
    114 H           4.5981   -6.6247    0.0000 H       1  UNL1        0.0648
    115 H           4.2690   -4.1947    0.0000 H       1  UNL1        0.0647
    116 H           3.7320   -5.5047    0.0000 H       1  UNL1        0.0647
    117 H          10.8933    4.6810    0.0000 H       1  UNL1        0.0687
    118 H           6.8671   -6.9347    0.0000 H       1  UNL1        0.2101
    119 H          11.7463    5.8110    0.0000 H       1  UNL1        0.0648
    120 H           3.8015   -3.8397    0.0000 H       1  UNL1        0.0584
    121 H           3.0044   -3.8397    0.0000 H       1  UNL1        0.0584
    122 H          10.7227    7.4642    0.0000 H       1  UNL1        0.0588
    123 H           9.9257    7.4550    0.0000 H       1  UNL1        0.0588
    124 H          11.1943    7.1147    0.0000 H       1  UNL1        0.0643
    125 H           4.5981   -7.6247    0.0000 H       1  UNL1        0.2100
    126 H           3.4030   -6.9347    0.0000 H       1  UNL1        0.2100
    127 H          10.7028    3.1787    0.0000 H       1  UNL1        0.0938
    128 H          12.6181    5.3210    0.0000 H       1  UNL1        0.2100
    129 H           2.0000   -4.5047    0.0000 H       1  UNL1        0.2095
    130 H          12.0544    7.6247    0.0000 H       1  UNL1        0.2100
    131 H          12.1977    2.1912    0.0000 H       1  UNL1        0.0671
    132 H          11.5861    1.6888    0.0000 H       1  UNL1        0.0648
    133 H          12.9609    4.1349    0.0000 H       1  UNL1        0.0621
    134 H          13.5129    2.8312    0.0000 H       1  UNL1        0.0646
    135 H          10.3947    1.3651    0.0000 H       1  UNL1        0.2101
    136 H          14.1444    3.4916    0.0000 H       1  UNL1        0.0255
    137 H          14.3616    4.3411    0.0000 H       1  UNL1        0.0255
    138 H          13.5120    4.5582    0.0000 H       1  UNL1        0.0255
    139 H          12.6715    0.7013    0.0000 H       1  UNL1        0.2100
    140 H          14.3847    2.3412    0.0000 H       1  UNL1        0.2100
@<TRIPOS>BOND
     1    36     1    1
     2    50     1    1
     3    38     2    1
     4     2   109    1
     5     3    47    1
     6    52     3    1
     7     4    46    1
     8     4   111    1
     9     5    46    2
    10     6    47    2
    11     7    50    1
    12     7    54    1
    13     8    52    1
    14     8    59    1
    15    51     9    1
    16     9   118    1
    17    53    10    1
    18    10   125    1
    19    56    11    1
    20    61    11    1
    21    55    12    1
    22    12   126    1
    23    57    13    1
    24    13   128    1
    25    14    58    1
    26    14   129    1
    27    60    15    1
    28    15   130    1
    29    16    61    1
    30    16    64    1
    31    62    17    1
    32    17   135    1
    33    63    18    1
    34    18   139    1
    35    65    19    1
    36    19   140    1
    37    20    21    1
    38    20    23    1
    39    20    25    1
    40    20    34    1
    41    21    22    1
    42    21    30    1
    43    21    67    1
    44    22    24    1
    45    22    31    1
    46    22    39    1
    47    23    26    1
    48    23    32    1
    49    23    40    1
    50    24    27    1
    51    24    28    1
    52    24    68    1
    53    25    27    1
    54    25    69    1
    55    25    70    1
    56    26    29    1
    57    26    37    2
    58    27    71    1
    59    27    72    1
    60    28    36    1
    61    28    45    1
    62    28    46    1
    63    29    33    1
    64    29    41    1
    65    29    73    1
    66    30    37    1
    67    30    74    1
    68    30    75    1
    69    31    38    1
    70    31    76    1
    71    31    77    1
    72    32    35    1
    73    32    78    1
    74    32    79    1
    75    33    35    1
    76    33    42    1
    77    33    47    1
    78    34    80    1
    79    34    81    1
    80    34    82    1
    81    35    83    1
    82    35    84    1
    83    36    38    1
    84    36    85    1
    85    37    86    1
    86    38    87    1
    87    39    88    1
    88    39    89    1
    89    39    90    1
    90    40    91    1
    91    40    92    1
    92    40    93    1
    93    41    43    1
    94    41    94    1
    95    41    95    1
    96    42    44    1
    97    42    96    1
    98    42    97    1
    99    43    44    1
   100    43    48    1
   101    43    49    1
   102    44    98    1
   103    44    99    1
   104    45   100    1
   105    45   101    1
   106    45   102    1
   107    48   105    1
   108    48   106    1
   109    48   107    1
   110    49   103    1
   111    49   104    1
   112    49   108    1
   113    50    51    1
   114    50   110    1
   115    51    53    1
   116    51   112    1
   117    52    56    1
   118    52   113    1
   119    53    55    1
   120    53   114    1
   121    54    55    1
   122    54    58    1
   123    54   115    1
   124    55   116    1
   125    56    57    1
   126    56   117    1
   127    57    60    1
   128    57   119    1
   129    58   120    1
   130    58   121    1
   131    59    60    1
   132    59   122    1
   133    59   123    1
   134    60   124    1
   135    61    62    1
   136    61   127    1
   137    62    63    1
   138    62   131    1
   139    63    65    1
   140    63   132    1
   141    64    65    1
   142    64    66    1
   143    64   133    1
   144    65   134    1
   145    66   136    1
   146    66   137    1
   147    66   138    1
