@<TRIPOS>MOLECULE
IMPHY000288
 33 33 0 0 0
SMALL
GASTEIGER

@<TRIPOS>ATOM
      1 O           5.7281   -0.5715    0.0000 O.2     1  UNL1       -0.2738
      2 O           2.0000    0.4066    0.0000 O.2     1  UNL1       -0.2758
      3 O           8.9086    1.1269    0.0000 O.3     1  UNL1       -0.4793
      4 OXT         7.7496    2.4140    0.0000 O.2     1  UNL1       -0.2489
      5 OE1         7.8381   -2.1677    0.0000 O.2     1  UNL1       -0.2760
      6 N           3.7601    0.1279    0.0000 N.am    1  UNL1       -0.3040
      7 N           6.2633    1.0758    0.0000 N.am    1  UNL1       -0.3008
      8 NE2         9.5323   -1.8076    0.0000 N.am    1  UNL1       -0.3293
      9 CA          4.5691    0.7157    0.0000 C.3     1  UNL1        0.0998
     10 C           4.2601    1.6667    0.0000 C.3     1  UNL1       -0.0177
     11 C           3.2601    1.6667    0.0000 C.3     1  UNL1        0.0261
     12 C           5.5202    0.4066    0.0000 C.2     1  ACE1        0.2340
     13 CA          7.2144    0.7668    0.0000 C.3     1  UNL1        0.1207
     14 C           2.9511    0.7157    0.0000 C.2     1  UNL1        0.2137
     15 CB          7.4223   -0.2114    0.0000 C.3     1  UNL1       -0.0159
     16 CG          8.3733   -0.5204    0.0000 C.3     1  UNL1        0.0259
     17 C           7.9575    1.4359    0.0000 C.2     1  UNL1        0.3253
     18 CD          8.5812   -1.4986    0.0000 C.2     1  UNL1        0.2106
     19 HA          4.6661    0.1033    0.0000 H       1  UNL1        0.0595
     20 H           4.8665    1.7956    0.0000 H       1  UNL1        0.0292
     21 H           4.1953    2.2833    0.0000 H       1  UNL1        0.0292
     22 H           3.3249    2.2833    0.0000 H       1  UNL1        0.0359
     23 H           2.6536    1.7956    0.0000 H       1  UNL1        0.0359
     24 H           3.7601   -0.4921    0.0000 H       1  UNL1        0.1494
     25 HA          6.7536    0.3519    0.0000 H       1  UNL1        0.0614
     26 HB1         6.8026   -0.2330    0.0000 H       1  UNL1        0.0293
     27 HB2         7.3360   -0.8254    0.0000 H       1  UNL1        0.0293
     28 H           6.1344    1.6822    0.0000 H       1  UNL1        0.1496
     29 HG1         8.9929   -0.4988    0.0000 H       1  UNL1        0.0359
     30 HG2         8.4596    0.0936    0.0000 H       1  UNL1        0.0359
     31 H           9.3693    1.5417    0.0000 H       1  UNL1        0.2951
     32 HE21        9.6612   -2.4140    0.0000 H       1  UNL1        0.1449
     33 HE22        9.9930   -1.3927    0.0000 H       1  UNL1        0.1449
@<TRIPOS>BOND
     1     1    12    2
     2     2    14    2
     3     3    17    1
     4     3    31    1
     5     4    17    2
     6     5    18    2
     7     6     9    1
     8     6    14   am
     9     6    24    1
    10     7    12   am
    11    13     7    1
    12     7    28    1
    13     8    18   am
    14     8    32    1
    15     8    33    1
    16     9    10    1
    17     9    12    1
    18     9    19    1
    19    10    11    1
    20    10    20    1
    21    10    21    1
    22    11    14    1
    23    11    22    1
    24    11    23    1
    25    13    15    1
    26    13    17    1
    27    13    25    1
    28    15    16    1
    29    15    26    1
    30    15    27    1
    31    16    18    1
    32    16    29    1
    33    16    30    1
