@<TRIPOS>MOLECULE
IMPHY003220
 100 105 0 0 0
SMALL
GASTEIGER

@<TRIPOS>ATOM
      1 O           6.8061   -1.1133    0.0000 O.3     1  UNL1       -0.4641
      2 O          15.0545   -3.7934    0.0000 O.3     1  UNL1       -0.4641
      3 O           5.1425   -0.4747    0.0000 O.2     1  UNL1       -0.2505
      4 O          16.7758   -4.2546    0.0000 O.2     1  UNL1       -0.2505
      5 O          11.7467    1.6773    0.0000 O.3     1  UNL1       -0.4945
      6 O          11.6273   -1.9263    0.0000 O.3     1  UNL1       -0.4945
      7 O           3.0657    0.0004    0.0000 O.3     1  UNL1       -0.4913
      8 O           3.4278    3.4456    0.0000 O.3     1  UNL1       -0.4913
      9 O          15.2711    0.9091    0.0000 O.3     1  UNL1       -0.4913
     10 O          18.7352    0.9091    0.0000 O.3     1  UNL1       -0.4913
     11 O           2.2522    1.8275    0.0000 O.3     1  UNL1       -0.5009
     12 O          17.0032    1.9091    0.0000 O.3     1  UNL1       -0.5009
     13 C           7.6152    0.2880    0.0000 C.3     1  UNL1        0.0105
     14 C          15.2236   -2.1842    0.0000 C.3     1  UNL1        0.0105
     15 C           6.6370    0.4959    0.0000 C.3     1  UNL1        0.0666
     16 C          16.1371   -2.5909    0.0000 C.3     1  UNL1        0.0666
     17 C           8.3583    0.9571    0.0000 C.3     1  UNL1       -0.0209
     18 C          15.0157   -1.2060    0.0000 C.3     1  UNL1       -0.0209
     19 C           7.7197   -0.7066    0.0000 C.3     1  UNL1        0.0963
     20 C          14.5545   -2.9273    0.0000 C.3     1  UNL1        0.0963
     21 C           6.2303    1.4094    0.0000 C.3     1  UNL1       -0.0141
     22 C          17.0032   -2.0909    0.0000 C.3     1  UNL1       -0.0141
     23 C           6.1370   -0.3702    0.0000 C.2     1  UNL1        0.3109
     24 C          16.0326   -3.5854    0.0000 C.2     1  UNL1        0.3109
     25 C           9.3094    0.6481    0.0000 C.ar    1  UNL1       -0.0435
     26 C          14.0646   -0.8970    0.0000 C.ar    1  UNL1       -0.0435
     27 C           5.2357    1.5139    0.0000 C.ar    1  UNL1       -0.0394
     28 C          17.0032   -1.0909    0.0000 C.ar    1  UNL1       -0.0394
     29 C          10.0525    1.3172    0.0000 C.ar    1  UNL1       -0.0162
     30 C          13.3215   -1.5662    0.0000 C.ar    1  UNL1       -0.0162
     31 C           9.5173   -0.3301    0.0000 C.ar    1  UNL1       -0.0578
     32 C          13.8567    0.0811    0.0000 C.ar    1  UNL1       -0.0578
     33 C          11.2115    0.0300    0.0000 C.ar    1  UNL1        0.0273
     34 C          12.1625   -0.2790    0.0000 C.ar    1  UNL1        0.0273
     35 C          11.0036    1.0082    0.0000 C.ar    1  UNL1        0.1281
     36 C          12.3704   -1.2571    0.0000 C.ar    1  UNL1        0.1281
     37 C          10.4683   -0.6391    0.0000 C.ar    1  UNL1       -0.0502
     38 C          12.9057    0.3901    0.0000 C.ar    1  UNL1       -0.0502
     39 C           4.8290    2.4275    0.0000 C.ar    1  UNL1       -0.0129
     40 C           4.6480    0.7049    0.0000 C.ar    1  UNL1       -0.0129
     41 C          17.8692   -0.5909    0.0000 C.ar    1  UNL1       -0.0129
     42 C          16.1371   -0.5909    0.0000 C.ar    1  UNL1       -0.0129
     43 C           3.6534    0.8094    0.0000 C.ar    1  UNL1        0.1652
     44 C           3.8345    2.5320    0.0000 C.ar    1  UNL1        0.1652
     45 C          16.1371    0.4091    0.0000 C.ar    1  UNL1        0.1652
     46 C          17.8692    0.4091    0.0000 C.ar    1  UNL1        0.1652
     47 C           3.2467    1.7230    0.0000 C.ar    1  UNL1        0.2010
     48 C          17.0032    0.9091    0.0000 C.ar    1  UNL1        0.2010
     49 C          11.5388    2.6555    0.0000 C.3     1  UNL1        0.0788
     50 C          11.8352   -2.9044    0.0000 C.3     1  UNL1        0.0788
     51 C           2.0711    0.1050    0.0000 C.3     1  UNL1        0.0790
     52 C           4.0155    4.2546    0.0000 C.3     1  UNL1        0.0790
     53 C          14.4051    0.4091    0.0000 C.3     1  UNL1        0.0790
     54 C          19.6012    0.4091    0.0000 C.3     1  UNL1        0.0790
     55 H           7.4547    0.8868    0.0000 H       1  UNL1        0.0345
     56 H          14.6247   -2.0237    0.0000 H       1  UNL1        0.0345
     57 H           7.0272    0.9777    0.0000 H       1  UNL1        0.0420
     58 H          16.1047   -1.9718    0.0000 H       1  UNL1        0.0420
     59 H           8.6494    1.5045    0.0000 H       1  UNL1        0.0317
     60 H           7.8697    1.3388    0.0000 H       1  UNL1        0.0317
     61 H          15.6353   -1.1844    0.0000 H       1  UNL1        0.0317
     62 H          15.1020   -0.5921    0.0000 H       1  UNL1        0.0317
     63 H           7.9113   -1.2962    0.0000 H       1  UNL1        0.0700
     64 H           8.3261   -0.5777    0.0000 H       1  UNL1        0.0700
     65 H          14.1396   -2.4666    0.0000 H       1  UNL1        0.0700
     66 H          14.0529   -3.2918    0.0000 H       1  UNL1        0.0700
     67 H           6.8318    1.5594    0.0000 H       1  UNL1        0.0321
     68 H           6.1870    2.0279    0.0000 H       1  UNL1        0.0321
     69 H          17.2152   -2.6735    0.0000 H       1  UNL1        0.0321
     70 H          17.6138   -1.9833    0.0000 H       1  UNL1        0.0321
     71 H           9.9236    1.9236    0.0000 H       1  UNL1        0.0657
     72 H          13.4504   -2.1726    0.0000 H       1  UNL1        0.0657
     73 H           9.0565   -0.7449    0.0000 H       1  UNL1        0.0620
     74 H          14.3175    0.4960    0.0000 H       1  UNL1        0.0620
     75 H          10.5972   -1.2456    0.0000 H       1  UNL1        0.0625
     76 H          12.7768    0.9966    0.0000 H       1  UNL1        0.0625
     77 H           5.1934    2.9291    0.0000 H       1  UNL1        0.0658
     78 H           4.9001    0.1385    0.0000 H       1  UNL1        0.0658
     79 H          18.4061   -0.9009    0.0000 H       1  UNL1        0.0658
     80 H          15.6002   -0.9009    0.0000 H       1  UNL1        0.0658
     81 H          12.1452    2.7844    0.0000 H       1  UNL1        0.0660
     82 H          11.4099    3.2619    0.0000 H       1  UNL1        0.0660
     83 H          10.9323    2.5266    0.0000 H       1  UNL1        0.0660
     84 H          11.2287   -3.0333    0.0000 H       1  UNL1        0.0660
     85 H          11.9641   -3.5109    0.0000 H       1  UNL1        0.0660
     86 H          12.4416   -2.7755    0.0000 H       1  UNL1        0.0660
     87 H           2.0000    2.3939    0.0000 H       1  UNL1        0.2924
     88 H          17.5401    2.2191    0.0000 H       1  UNL1        0.2924
     89 H           2.1359    0.7216    0.0000 H       1  UNL1        0.0660
     90 H           1.4545    0.1698    0.0000 H       1  UNL1        0.0660
     91 H           2.0063   -0.5116    0.0000 H       1  UNL1        0.0660
     92 H           4.5171    3.8902    0.0000 H       1  UNL1        0.0660
     93 H           4.3800    4.7562    0.0000 H       1  UNL1        0.0660
     94 H           3.5139    4.6190    0.0000 H       1  UNL1        0.0660
     95 H          14.0951    0.9460    0.0000 H       1  UNL1        0.0660
     96 H          13.8682    0.0991    0.0000 H       1  UNL1        0.0660
     97 H          14.7151   -0.1279    0.0000 H       1  UNL1        0.0660
     98 H          19.2912   -0.1279    0.0000 H       1  UNL1        0.0660
     99 H          20.1382    0.0991    0.0000 H       1  UNL1        0.0660
    100 H          19.9112    0.9460    0.0000 H       1  UNL1        0.0660
@<TRIPOS>BOND
     1     1    19    1
     2     1    23    1
     3     2    20    1
     4     2    24    1
     5     3    23    2
     6     4    24    2
     7     5    35    1
     8     5    49    1
     9     6    36    1
    10     6    50    1
    11     7    43    1
    12     7    51    1
    13     8    44    1
    14     8    52    1
    15     9    45    1
    16     9    53    1
    17    10    46    1
    18    10    54    1
    19    11    47    1
    20    11    87    1
    21    12    48    1
    22    12    88    1
    23    13    15    1
    24    13    17    1
    25    13    19    1
    26    13    55    1
    27    14    16    1
    28    14    18    1
    29    14    20    1
    30    14    56    1
    31    15    21    1
    32    15    23    1
    33    15    57    1
    34    16    22    1
    35    16    24    1
    36    16    58    1
    37    17    25    1
    38    17    59    1
    39    17    60    1
    40    18    26    1
    41    18    61    1
    42    18    62    1
    43    19    63    1
    44    19    64    1
    45    20    65    1
    46    20    66    1
    47    21    27    1
    48    21    67    1
    49    21    68    1
    50    22    28    1
    51    22    69    1
    52    22    70    1
    53    25    29   ar
    54    25    31   ar
    55    26    30   ar
    56    26    32   ar
    57    27    39   ar
    58    27    40   ar
    59    28    41   ar
    60    28    42   ar
    61    29    35   ar
    62    29    71    1
    63    30    36   ar
    64    30    72    1
    65    31    37   ar
    66    31    73    1
    67    32    38   ar
    68    32    74    1
    69    33    34    1
    70    33    35   ar
    71    33    37   ar
    72    34    36   ar
    73    34    38   ar
    74    37    75    1
    75    38    76    1
    76    39    44   ar
    77    39    77    1
    78    40    43   ar
    79    40    78    1
    80    41    46   ar
    81    41    79    1
    82    42    45   ar
    83    42    80    1
    84    43    47   ar
    85    44    47   ar
    86    45    48   ar
    87    46    48   ar
    88    49    81    1
    89    49    82    1
    90    49    83    1
    91    50    84    1
    92    50    85    1
    93    50    86    1
    94    51    89    1
    95    51    90    1
    96    51    91    1
    97    52    92    1
    98    52    93    1
    99    52    94    1
   100    53    95    1
   101    53    96    1
   102    53    97    1
   103    54    98    1
   104    54    99    1
   105    54   100    1
