@<TRIPOS>MOLECULE
IMPHY010022
 91 97 0 0 0
SMALL
GASTEIGER

@<TRIPOS>ATOM
      1 O           6.7281    5.2243    0.0000 O.3     1  UNL1       -0.3591
      2 O           6.3861    3.4354    0.0000 O.3     1  UNL1       -0.3148
      3 O           5.5000    2.9509    0.0000 O.3     1  UNL1       -0.3155
      4 O           5.6060    1.3744    0.0000 O.3     1  UNL1       -0.3052
      5 O           9.5633    5.2680    0.0000 O.3     1  UNL1       -0.3780
      6 O           9.1512    5.9759    0.0000 O.3     1  UNL1       -0.3854
      7 O           7.5337    0.2566    0.0000 O.3     1  UNL1       -0.4546
      8 O           7.9755    6.7876    0.0000 O.3     1  UNL1       -0.3920
      9 O          10.8455    5.2372    0.0000 O.2     1  UNL1       -0.2940
     10 O           9.2604    0.3927    0.0000 O.2     1  UNL1       -0.2456
     11 C           8.2173    2.8843    0.0000 C.3     1  UNL1        0.0951
     12 C           7.3164    3.3181    0.0000 C.3     1  UNL1        0.0478
     13 C           7.0938    4.2931    0.0000 C.3     1  UNL1        0.1013
     14 C           9.1183    3.3181    0.0000 C.3     1  UNL1        0.0281
     15 C           7.7173    5.0749    0.0000 C.3     1  UNL1        0.1479
     16 C           6.4468    2.7447    0.0000 C.3     1  UNL1        0.1089
     17 C           8.3112    1.8469    0.0000 C.3     1  UNL1        0.0266
     18 C           9.3408    4.2931    0.0000 C.3     1  UNL1        0.1576
     19 C           6.5166    1.7054    0.0000 C.3     1  UNL1        0.1593
     20 C           8.7173    5.0749    0.0000 C.3     1  UNL1        0.1245
     21 C           7.4551    1.2535    0.0000 C.3     1  UNL1        0.1438
     22 C           9.9730    2.8105    0.0000 C.3     1  UNL1       -0.0350
     23 C           4.9932    2.1250    0.0000 C.3     1  UNL1        0.3163
     24 C          10.7210    3.4652    0.0000 C.3     1  UNL1        0.0181
     25 C          10.3311    4.3796    0.0000 C.2     1  UNL1        0.1704
     26 C           8.3408    5.8567    0.0000 C.3     1  UNL1        0.0783
     27 C           9.2171    1.4234    0.0000 C.3     1  UNL1       -0.0563
     28 C           6.5836    0.7077    0.0000 C.2     1  UNL1       -0.0421
     29 C           3.9955    2.0580    0.0000 C.ar    1  UNL1        0.0409
     30 C          11.6960    3.2427    0.0000 C.3     1  UNL1       -0.0556
     31 C           5.7531    0.1507    0.0000 C.3     1  UNL1       -0.0411
     32 C           6.6507   -0.2901    0.0000 C.2     1  UNL1       -0.0968
     33 C           3.4386    2.8886    0.0000 C.ar    1  UNL1       -0.0510
     34 C           3.5547    1.1604    0.0000 C.ar    1  UNL1       -0.0510
     35 C           8.4363   -0.1738    0.0000 C.2     1  UNL1        0.3323
     36 C           2.4408    2.8215    0.0000 C.ar    1  UNL1       -0.0613
     37 C           2.5569    1.0934    0.0000 C.ar    1  UNL1       -0.0613
     38 C           8.5149   -1.1708    0.0000 C.2     1  UNL1        0.0225
     39 C           2.0000    1.9239    0.0000 C.ar    1  UNL1       -0.0617
     40 C           9.4175   -1.6012    0.0000 C.2     1  UNL1       -0.0550
     41 C           9.4961   -2.5981    0.0000 C.2     1  UNL1       -0.0616
     42 C          10.3987   -3.0285    0.0000 C.2     1  UNL1       -0.0621
     43 C          10.4773   -4.0254    0.0000 C.2     1  UNL1       -0.0657
     44 C          11.3799   -4.4558    0.0000 C.2     1  UNL1       -0.0840
     45 C          11.4585   -5.4527    0.0000 C.3     1  UNL1       -0.0347
     46 C          12.3611   -5.8831    0.0000 C.3     1  UNL1       -0.0525
     47 C          12.4397   -6.8800    0.0000 C.3     1  UNL1       -0.0650
     48 H           7.9809    3.8481    0.0000 H       1  UNL1        0.0381
     49 H           6.2816    4.0424    0.0000 H       1  UNL1        0.0631
     50 H           9.0813    2.4690    0.0000 H       1  UNL1        0.0362
     51 H           7.2083    2.3671    0.0000 H       1  UNL1        0.0636
     52 H           9.0070    2.3351    0.0000 H       1  UNL1        0.0363
     53 H           8.2651    5.7946    0.0000 H       1  UNL1        0.0657
     54 H           8.2230    0.8891    0.0000 H       1  UNL1        0.0771
     55 H           9.6021    2.3137    0.0000 H       1  UNL1        0.0276
     56 H          10.4281    2.3894    0.0000 H       1  UNL1        0.0276
     57 H          11.2661    4.1174    0.0000 H       1  UNL1        0.0376
     58 H           8.7511    5.3919    0.0000 H       1  UNL1        0.0588
     59 H           8.8699    6.1800    0.0000 H       1  UNL1        0.0588
     60 H           8.9546    0.8618    0.0000 H       1  UNL1        0.0234
     61 H           9.7788    1.1609    0.0000 H       1  UNL1        0.0234
     62 H           9.4796    1.9851    0.0000 H       1  UNL1        0.0234
     63 H          10.1558    5.4508    0.0000 H       1  UNL1        0.2109
     64 H           8.8020    6.4881    0.0000 H       1  UNL1        0.2100
     65 H          11.5580    2.6382    0.0000 H       1  UNL1        0.0236
     66 H          12.3004    3.1047    0.0000 H       1  UNL1        0.0236
     67 H          11.8339    3.8471    0.0000 H       1  UNL1        0.0236
     68 H           5.4078    0.6657    0.0000 H       1  UNL1        0.0275
     69 H           5.2382   -0.1946    0.0000 H       1  UNL1        0.0275
     70 H           6.0984   -0.3642    0.0000 H       1  UNL1        0.0275
     71 H           7.3624    6.8800    0.0000 H       1  UNL1        0.2095
     72 H           6.1358   -0.6354    0.0000 H       1  UNL1        0.0535
     73 H           7.2072   -0.5634    0.0000 H       1  UNL1        0.0535
     74 H           3.7119    3.4451    0.0000 H       1  UNL1        0.0623
     75 H           3.9000    0.6455    0.0000 H       1  UNL1        0.0623
     76 H           2.0955    3.3365    0.0000 H       1  UNL1        0.0618
     77 H           2.2836    0.5369    0.0000 H       1  UNL1        0.0618
     78 H           8.0040   -1.5220    0.0000 H       1  UNL1        0.0689
     79 H           1.3814    1.8824    0.0000 H       1  UNL1        0.0618
     80 H           9.9284   -1.2499    0.0000 H       1  UNL1        0.0620
     81 H           8.9852   -2.9493    0.0000 H       1  UNL1        0.0618
     82 H          10.9096   -2.6772    0.0000 H       1  UNL1        0.0617
     83 H           9.9664   -4.3766    0.0000 H       1  UNL1        0.0614
     84 H          11.8908   -4.1046    0.0000 H       1  UNL1        0.0572
     85 H          10.8413   -5.3933    0.0000 H       1  UNL1        0.0307
     86 H          11.2929   -6.0502    0.0000 H       1  UNL1        0.0307
     87 H          12.9783   -5.9425    0.0000 H       1  UNL1        0.0266
     88 H          12.5267   -5.2856    0.0000 H       1  UNL1        0.0266
     89 H          11.8216   -6.9287    0.0000 H       1  UNL1        0.0230
     90 H          12.4884   -7.4981    0.0000 H       1  UNL1        0.0230
     91 H          13.0578   -6.8313    0.0000 H       1  UNL1        0.0230
@<TRIPOS>BOND
     1     1    13    1
     2     1    15    1
     3     2    11    1
     4     2    23    1
     5     3    16    1
     6     3    23    1
     7     4    19    1
     8     4    23    1
     9     5    18    1
    10     5    63    1
    11     6    20    1
    12     6    64    1
    13     7    21    1
    14     7    35    1
    15     8    26    1
    16     8    71    1
    17     9    25    2
    18    10    35    2
    19    11    12    1
    20    11    14    1
    21    11    17    1
    22    12    13    1
    23    12    16    1
    24    12    48    1
    25    13    15    1
    26    13    49    1
    27    14    18    1
    28    14    22    1
    29    14    50    1
    30    15    20    1
    31    15    26    1
    32    16    19    1
    33    16    51    1
    34    17    21    1
    35    17    27    1
    36    17    52    1
    37    18    20    1
    38    18    25    1
    39    19    21    1
    40    19    28    1
    41    20    53    1
    42    21    54    1
    43    22    24    1
    44    22    55    1
    45    22    56    1
    46    23    29    1
    47    24    25    1
    48    24    30    1
    49    24    57    1
    50    26    58    1
    51    26    59    1
    52    27    60    1
    53    27    61    1
    54    27    62    1
    55    28    31    1
    56    28    32    2
    57    29    33   ar
    58    29    34   ar
    59    30    65    1
    60    30    66    1
    61    30    67    1
    62    31    68    1
    63    31    69    1
    64    31    70    1
    65    32    72    1
    66    32    73    1
    67    33    36   ar
    68    33    74    1
    69    34    37   ar
    70    34    75    1
    71    35    38    1
    72    36    39   ar
    73    36    76    1
    74    37    39   ar
    75    37    77    1
    76    38    40    2
    77    38    78    1
    78    39    79    1
    79    40    41    1
    80    40    80    1
    81    41    42    2
    82    41    81    1
    83    42    43    1
    84    42    82    1
    85    43    44    2
    86    43    83    1
    87    44    45    1
    88    44    84    1
    89    45    46    1
    90    45    85    1
    91    45    86    1
    92    46    47    1
    93    46    87    1
    94    46    88    1
    95    47    89    1
    96    47    90    1
    97    47    91    1
