@<TRIPOS>MOLECULE
IMPHY001970
 58 60 0 0 0
SMALL
GASTEIGER

@<TRIPOS>ATOM
      1 O           6.8671   -0.9050    0.0000 O.3     1  UNL1       -0.3378
      2 O           5.1350   -0.9050    0.0000 O.3     1  UNL1       -0.3405
      3 O           6.0010    1.5950    0.0000 O.3     1  UNL1       -0.3405
      4 O           5.1350    0.0950    0.0000 O.3     1  UNL1       -0.3440
      5 O           8.5991    0.0950    0.0000 O.3     1  UNL1       -0.3864
      6 O           8.5991    2.0950    0.0000 O.3     1  UNL1       -0.3865
      7 O           6.8671   -2.9050    0.0000 O.3     1  UNL1       -0.3841
      8 O           5.1350   -3.9050    0.0000 O.3     1  UNL1       -0.3864
      9 O           3.4030   -2.9050    0.0000 O.3     1  UNL1       -0.3865
     10 O           6.0010    3.5950    0.0000 O.3     1  UNL1       -0.3924
     11 O           2.5369   -1.4050    0.0000 O.3     1  UNL1       -0.3924
     12 C           6.8671    0.0950    0.0000 C.3     1  UNL1        0.1406
     13 C           7.7331    0.5950    0.0000 C.3     1  UNL1        0.1144
     14 C           6.0010   -1.4050    0.0000 C.3     1  UNL1        0.1885
     15 C           7.7331    1.5950    0.0000 C.3     1  UNL1        0.1119
     16 C           6.0010   -2.4050    0.0000 C.3     1  UNL1        0.1341
     17 C           6.0010    0.5950    0.0000 C.3     1  UNL1        0.1886
     18 C           5.1350   -2.9050    0.0000 C.3     1  UNL1        0.1141
     19 C           6.8671    2.0950    0.0000 C.3     1  UNL1        0.1130
     20 C           4.2690   -2.4050    0.0000 C.3     1  UNL1        0.1119
     21 C           4.2690   -1.4050    0.0000 C.3     1  UNL1        0.1130
     22 C           6.8671    3.0950    0.0000 C.3     1  UNL1        0.0730
     23 C           3.4030   -0.9050    0.0000 C.3     1  UNL1        0.0730
     24 C           4.2690    0.5950    0.0000 C.3     1  UNL1        0.0758
     25 C           4.2690    1.5950    0.0000 C.ar    1  UNL1       -0.0218
     26 C           5.1350    2.0950    0.0000 C.ar    1  UNL1       -0.0564
     27 C           3.4030    2.0950    0.0000 C.ar    1  UNL1       -0.0564
     28 C           5.1350    3.0950    0.0000 C.ar    1  UNL1       -0.0614
     29 C           3.4030    3.0950    0.0000 C.ar    1  UNL1       -0.0614
     30 C           4.2690    3.5950    0.0000 C.ar    1  UNL1       -0.0617
     31 H           7.4040   -0.2150    0.0000 H       1  UNL1        0.0675
     32 H           8.2700    0.9050    0.0000 H       1  UNL1        0.0648
     33 H           6.0010   -0.7850    0.0000 H       1  UNL1        0.0938
     34 H           7.7331    2.2150    0.0000 H       1  UNL1        0.0647
     35 H           6.0010   -3.0250    0.0000 H       1  UNL1        0.0671
     36 H           5.4641    0.9050    0.0000 H       1  UNL1        0.0938
     37 H           4.5981   -3.2150    0.0000 H       1  UNL1        0.0648
     38 H           6.3301    2.4050    0.0000 H       1  UNL1        0.0647
     39 H           3.7320   -2.0950    0.0000 H       1  UNL1        0.0647
     40 H           4.2690   -0.7850    0.0000 H       1  UNL1        0.0647
     41 H           7.4776    2.9873    0.0000 H       1  UNL1        0.0584
     42 H           7.0791    3.6776    0.0000 H       1  UNL1        0.0584
     43 H           3.8015   -0.4301    0.0000 H       1  UNL1        0.0584
     44 H           3.0044   -0.4301    0.0000 H       1  UNL1        0.0584
     45 H           9.1360    0.4050    0.0000 H       1  UNL1        0.2100
     46 H           8.5991    2.7150    0.0000 H       1  UNL1        0.2100
     47 H           6.8671   -3.5250    0.0000 H       1  UNL1        0.2101
     48 H           4.5981   -4.2150    0.0000 H       1  UNL1        0.2100
     49 H           3.4030   -3.5250    0.0000 H       1  UNL1        0.2100
     50 H           3.6584    0.7027    0.0000 H       1  UNL1        0.0611
     51 H           4.0569    0.0124    0.0000 H       1  UNL1        0.0611
     52 H           6.0010    4.2150    0.0000 H       1  UNL1        0.2095
     53 H           2.0000   -1.0950    0.0000 H       1  UNL1        0.2095
     54 H           5.6720    1.7850    0.0000 H       1  UNL1        0.0621
     55 H           2.8660    1.7850    0.0000 H       1  UNL1        0.0621
     56 H           5.6720    3.4050    0.0000 H       1  UNL1        0.0618
     57 H           2.8660    3.4050    0.0000 H       1  UNL1        0.0618
     58 H           4.2690    4.2150    0.0000 H       1  UNL1        0.0618
@<TRIPOS>BOND
     1    12     1    1
     2    14     1    1
     3     2    14    1
     4     2    21    1
     5     3    17    1
     6     3    19    1
     7    17     4    1
     8     4    24    1
     9    13     5    1
    10     5    45    1
    11    15     6    1
    12     6    46    1
    13    16     7    1
    14     7    47    1
    15    18     8    1
    16     8    48    1
    17    20     9    1
    18     9    49    1
    19    10    22    1
    20    10    52    1
    21    11    23    1
    22    11    53    1
    23    12    13    1
    24    12    17    1
    25    12    31    1
    26    13    15    1
    27    13    32    1
    28    14    16    1
    29    14    33    1
    30    15    19    1
    31    15    34    1
    32    16    18    1
    33    16    35    1
    34    17    36    1
    35    18    20    1
    36    18    37    1
    37    19    22    1
    38    19    38    1
    39    20    21    1
    40    20    39    1
    41    21    23    1
    42    21    40    1
    43    22    41    1
    44    22    42    1
    45    23    43    1
    46    23    44    1
    47    24    25    1
    48    24    50    1
    49    24    51    1
    50    25    26   ar
    51    25    27   ar
    52    26    28   ar
    53    26    54    1
    54    27    29   ar
    55    27    55    1
    56    28    30   ar
    57    28    56    1
    58    29    30   ar
    59    29    57    1
    60    30    58    1
