@<TRIPOS>MOLECULE
IMPHY002831
 88 92 0 0 0
SMALL
GASTEIGER

@<TRIPOS>ATOM
      1 O          10.5680    0.8545    0.0000 O.2     1  UNL1       -0.2916
      2 O          14.2741   -2.2280    0.0000 O.3     1  UNL1       -0.5064
      3 O           9.8100   -2.9600    0.0000 O.3     1  UNL1       -0.5056
      4 O           9.8100    0.5041    0.0000 O.3     1  UNL1       -0.5064
      5 O          10.6500    2.0911    0.0000 O.3     1  UNL1       -0.5054
      6 O          16.0062    0.7720    0.0000 O.3     1  UNL1       -0.5066
      7 O          13.9052    3.2759    0.0000 O.3     1  UNL1       -0.5061
      8 O           8.3100   -3.8260    0.0000 O.2     1  UNL1       -0.2872
      9 O           5.3100   -5.5580    0.0000 O.3     1  UNL1       -0.5061
     10 O           2.3100   -3.8260    0.0000 O.3     1  UNL1       -0.5066
     11 C          11.6760   -0.7280    0.0000 C.3     1  UNL1        0.0399
     12 C          12.5421   -1.2280    0.0000 C.3     1  UNL1        0.0019
     13 C          10.8100   -1.2280    0.0000 C.3     1  UNL1        0.0198
     14 C          12.5421   -2.2280    0.0000 C.3     1  UNL1       -0.0244
     15 C          11.6760   -2.7280    0.0000 C.2     1  UNL1       -0.0753
     16 C          10.8100   -2.2280    0.0000 C.2     1  UNL1       -0.0767
     17 C          13.4081   -0.7280    0.0000 C.ar    1  UNL1       -0.0016
     18 C           9.8100   -1.2280    0.0000 C.ar    1  UNL1        0.0436
     19 C          11.3340    0.2117    0.0000 C.2     1  UNL1        0.1712
     20 C          11.6760   -3.7280    0.0000 C.3     1  UNL1       -0.0437
     21 C          11.9768    0.9778    0.0000 C.ar    1  UNL1        0.0599
     22 C          14.2741   -1.2280    0.0000 C.ar    1  UNL1        0.1238
     23 C           9.3100   -2.0939    0.0000 C.ar    1  UNL1        0.1348
     24 C          13.4081    0.2720    0.0000 C.ar    1  UNL1       -0.0514
     25 C           9.3100   -0.3619    0.0000 C.ar    1  UNL1        0.1241
     26 C           8.3100   -2.0940    0.0000 C.ar    1  UNL1        0.0635
     27 C          15.1401   -0.7280    0.0000 C.ar    1  UNL1        0.0216
     28 C          14.2741    0.7720    0.0000 C.ar    1  UNL1       -0.0197
     29 C           8.3100   -0.3619    0.0000 C.ar    1  UNL1       -0.0190
     30 C          11.6348    1.9175    0.0000 C.ar    1  UNL1        0.1379
     31 C          12.9616    0.8041    0.0000 C.ar    1  UNL1       -0.0443
     32 C           7.8100   -1.2280    0.0000 C.ar    1  UNL1       -0.0440
     33 C          15.1401    0.2720    0.0000 C.ar    1  UNL1        0.1203
     34 C          12.2776    2.6835    0.0000 C.ar    1  UNL1        0.0582
     35 C          13.6044    1.5702    0.0000 C.ar    1  UNL1       -0.0187
     36 C           7.8100   -2.9599    0.0000 C.2     1  UNL1        0.1896
     37 C          13.2624    2.5098    0.0000 C.ar    1  UNL1        0.1275
     38 C          11.9355    3.6232    0.0000 C.2     1  UNL1       -0.0513
     39 C           6.8100   -2.9600    0.0000 C.2     1  UNL1       -0.0136
     40 C          12.5783    4.3892    0.0000 C.2     1  UNL1       -0.0806
     41 C          12.2363    5.3289    0.0000 C.3     1  UNL1       -0.0283
     42 C           6.3100   -3.8260    0.0000 C.2     1  UNL1       -0.0475
     43 C          12.8791    6.0950    0.0000 C.3     1  UNL1       -0.0592
     44 C          11.2515    5.5026    0.0000 C.3     1  UNL1       -0.0592
     45 C           5.3100   -3.8260    0.0000 C.ar    1  UNL1        0.0168
     46 C           4.8100   -4.6920    0.0000 C.ar    1  UNL1        0.1274
     47 C           4.8100   -2.9600    0.0000 C.ar    1  UNL1       -0.0477
     48 C           3.8100   -4.6921    0.0000 C.ar    1  UNL1        0.0219
     49 C           3.8100   -2.9600    0.0000 C.ar    1  UNL1       -0.0194
     50 C           3.3100   -3.8260    0.0000 C.ar    1  UNL1        0.1204
     51 H          12.1510   -0.3294    0.0000 H       1  UNL1        0.0396
     52 H          12.5421   -0.3780    0.0000 H       1  UNL1        0.0360
     53 H          10.5900   -0.4069    0.0000 H       1  UNL1        0.0401
     54 H          12.7541   -2.8106    0.0000 H       1  UNL1        0.0316
     55 H          13.1526   -2.1203    0.0000 H       1  UNL1        0.0316
     56 H          10.2731   -2.5380    0.0000 H       1  UNL1        0.0578
     57 H          11.0560   -3.7280    0.0000 H       1  UNL1        0.0274
     58 H          11.6760   -4.3480    0.0000 H       1  UNL1        0.0274
     59 H          12.2960   -3.7280    0.0000 H       1  UNL1        0.0274
     60 H          12.8711    0.5820    0.0000 H       1  UNL1        0.0623
     61 H          15.6771   -1.0380    0.0000 H       1  UNL1        0.0691
     62 H          14.2741    1.3920    0.0000 H       1  UNL1        0.0654
     63 H           8.0000    0.1750    0.0000 H       1  UNL1        0.0654
     64 H          13.1737    0.2215    0.0000 H       1  UNL1        0.0627
     65 H           7.1900   -1.2280    0.0000 H       1  UNL1        0.0627
     66 H          14.8110   -2.5380    0.0000 H       1  UNL1        0.2921
     67 H           9.5000   -3.4969    0.0000 H       1  UNL1        0.2922
     68 H           9.5000    1.0410    0.0000 H       1  UNL1        0.2921
     69 H          14.2150    1.4625    0.0000 H       1  UNL1        0.0654
     70 H          10.4379    2.6737    0.0000 H       1  UNL1        0.2922
     71 H          11.3250    3.7308    0.0000 H       1  UNL1        0.0623
     72 H          16.5431    0.4620    0.0000 H       1  UNL1        0.2921
     73 H           6.5000   -2.4231    0.0000 H       1  UNL1        0.0656
     74 H          13.1889    4.2816    0.0000 H       1  UNL1        0.0575
     75 H          13.6931    3.8585    0.0000 H       1  UNL1        0.2922
     76 H          12.8469    5.2213    0.0000 H       1  UNL1        0.0338
     77 H           6.6200   -4.3629    0.0000 H       1  UNL1        0.0626
     78 H          11.3592    6.1132    0.0000 H       1  UNL1        0.0235
     79 H          10.6409    5.6102    0.0000 H       1  UNL1        0.0235
     80 H          11.1438    4.8920    0.0000 H       1  UNL1        0.0235
     81 H          13.3540    5.6964    0.0000 H       1  UNL1        0.0235
     82 H          13.2776    6.5699    0.0000 H       1  UNL1        0.0235
     83 H          12.4041    6.4935    0.0000 H       1  UNL1        0.0235
     84 H           5.1200   -2.4231    0.0000 H       1  UNL1        0.0626
     85 H           3.5000   -5.2290    0.0000 H       1  UNL1        0.0691
     86 H           3.5000   -2.4231    0.0000 H       1  UNL1        0.0654
     87 H           5.0000   -6.0950    0.0000 H       1  UNL1        0.2922
     88 H           2.0000   -3.2891    0.0000 H       1  UNL1        0.2921
@<TRIPOS>BOND
     1     1    19    2
     2     2    22    1
     3     2    66    1
     4     3    23    1
     5     3    67    1
     6     4    25    1
     7     4    68    1
     8     5    30    1
     9     5    70    1
    10     6    33    1
    11     6    72    1
    12     7    37    1
    13     7    75    1
    14     8    36    2
    15     9    46    1
    16     9    87    1
    17    10    50    1
    18    10    88    1
    19    11    12    1
    20    11    13    1
    21    11    19    1
    22    11    51    1
    23    12    14    1
    24    12    17    1
    25    12    52    1
    26    13    16    1
    27    13    18    1
    28    13    53    1
    29    14    15    1
    30    14    54    1
    31    14    55    1
    32    15    16    2
    33    15    20    1
    34    16    56    1
    35    17    22   ar
    36    17    24   ar
    37    18    23   ar
    38    18    25   ar
    39    19    21    1
    40    20    57    1
    41    20    58    1
    42    20    59    1
    43    21    30   ar
    44    21    31   ar
    45    22    27   ar
    46    23    26   ar
    47    24    28   ar
    48    24    60    1
    49    25    29   ar
    50    26    32   ar
    51    26    36    1
    52    27    33   ar
    53    27    61    1
    54    28    33   ar
    55    28    62    1
    56    29    32   ar
    57    29    63    1
    58    30    34   ar
    59    31    35   ar
    60    31    64    1
    61    32    65    1
    62    34    37   ar
    63    34    38    1
    64    35    37   ar
    65    35    69    1
    66    36    39    1
    67    38    40    2
    68    38    71    1
    69    39    42    2
    70    39    73    1
    71    40    41    1
    72    40    74    1
    73    41    43    1
    74    41    44    1
    75    41    76    1
    76    42    45    1
    77    42    77    1
    78    43    81    1
    79    43    82    1
    80    43    83    1
    81    44    78    1
    82    44    79    1
    83    44    80    1
    84    45    46   ar
    85    45    47   ar
    86    46    48   ar
    87    47    49   ar
    88    47    84    1
    89    48    50   ar
    90    48    85    1
    91    49    50   ar
    92    49    86    1
