@<TRIPOS>MOLECULE
IMPHY002861
 16 16 0 0 0
SMALL
GASTEIGER

@<TRIPOS>ATOM
      1 O           2.8660   -1.5000    0.0000 O.2     1  UNL1       -0.2907
      2 N           4.5981   -0.5000    0.0000 N.ar    1  UNL1       -0.2521
      3 C           3.7320    0.0000    0.0000 C.ar    1  UNL1        0.1058
      4 C           3.7320    1.0000    0.0000 C.ar    1  UNL1       -0.0329
      5 C           2.8660   -0.5000    0.0000 C.2     1  UNL1        0.1781
      6 C           4.5981    1.5000    0.0000 C.ar    1  UNL1       -0.0582
      7 C           2.0000    0.0000    0.0000 C.3     1  UNL1        0.0001
      8 C           5.4641    1.0000    0.0000 C.ar    1  UNL1       -0.0436
      9 C           5.4641    0.0000    0.0000 C.ar    1  UNL1        0.0284
     10 H           3.1951    1.3100    0.0000 H       1  UNL1        0.0640
     11 H           4.5981    2.1200    0.0000 H       1  UNL1        0.0619
     12 H           2.3100    0.5369    0.0000 H       1  UNL1        0.0310
     13 H           1.4631    0.3100    0.0000 H       1  UNL1        0.0310
     14 H           1.6900   -0.5369    0.0000 H       1  UNL1        0.0310
     15 H           6.0010    1.3100    0.0000 H       1  UNL1        0.0633
     16 H           6.0010   -0.3100    0.0000 H       1  UNL1        0.0830
@<TRIPOS>BOND
     1     1     5    2
     2     2     3   ar
     3     2     9   ar
     4     3     4   ar
     5     3     5    1
     6     4     6   ar
     7     4    10    1
     8     5     7    1
     9     6     8   ar
    10     6    11    1
    11     7    12    1
    12     7    13    1
    13     7    14    1
    14     8     9   ar
    15     8    15    1
    16     9    16    1
