@<TRIPOS>MOLECULE
IMPHY011453
 18 17 0 0 0
SMALL
GASTEIGER

@<TRIPOS>ATOM
      1 O           2.5369    0.4400    0.0000 O.3     1  UNL1       -0.4804
      2 O           3.4030   -1.0600    0.0000 O.2     1  UNL1       -0.2507
      3 C           6.8671   -0.0600    0.0000 C.3     1  UNL1       -0.0376
      4 C           6.0010    0.4400    0.0000 C.2     1  UNL1       -0.0877
      5 C           4.2690    0.4400    0.0000 C.3     1  UNL1        0.0630
      6 C           5.1350   -0.0600    0.0000 C.2     1  UNL1       -0.0774
      7 C           7.7331    0.4400    0.0000 C.3     1  UNL1       -0.0618
      8 C           3.4030   -0.0600    0.0000 C.2     1  UNL1        0.3085
      9 H           6.4685   -0.5349    0.0000 H       1  UNL1        0.0305
     10 H           7.2656   -0.5349    0.0000 H       1  UNL1        0.0305
     11 H           6.0010    1.0600    0.0000 H       1  UNL1        0.0569
     12 H           4.6675    0.9149    0.0000 H       1  UNL1        0.0420
     13 H           3.8705    0.9149    0.0000 H       1  UNL1        0.0420
     14 H           5.1350   -0.6800    0.0000 H       1  UNL1        0.0574
     15 H           8.0431   -0.0969    0.0000 H       1  UNL1        0.0233
     16 H           8.2700    0.7500    0.0000 H       1  UNL1        0.0233
     17 H           7.4231    0.9769    0.0000 H       1  UNL1        0.0233
     18 H           2.0000    0.1300    0.0000 H       1  UNL1        0.2951
@<TRIPOS>BOND
     1     1     8    1
     2     1    18    1
     3     2     8    2
     4     3     4    1
     5     3     7    1
     6     3     9    1
     7     3    10    1
     8     4     6    2
     9     4    11    1
    10     5     6    1
    11     5     8    1
    12     5    12    1
    13     5    13    1
    14     6    14    1
    15     7    15    1
    16     7    16    1
    17     7    17    1
