@<TRIPOS>MOLECULE
IMPHY005157
 25 25 0 0 0
SMALL
GASTEIGER

@<TRIPOS>ATOM
      1 O           4.2690    2.0000    0.0000 O.3     1  UNL1       -0.4915
      2 O           2.5369    1.0000    0.0000 O.3     1  UNL1       -0.5033
      3 O           5.1350   -2.5000    0.0000 O.2     1  UNL1       -0.2974
      4 C           5.1350   -0.5000    0.0000 C.ar    1  UNL1       -0.0366
      5 C           6.0010   -1.0000    0.0000 C.3     1  UNL1        0.0308
      6 C           5.1350    0.5000    0.0000 C.ar    1  UNL1       -0.0127
      7 C           4.2690   -1.0000    0.0000 C.ar    1  UNL1       -0.0545
      8 C           4.2690    1.0000    0.0000 C.ar    1  UNL1        0.1615
      9 C           3.4030    0.5000    0.0000 C.ar    1  UNL1        0.1585
     10 C           3.4030   -0.5000    0.0000 C.ar    1  UNL1       -0.0163
     11 C           6.0010   -2.0000    0.0000 C.2     1  UNL1        0.1346
     12 C           6.8671   -2.5000    0.0000 C.3     1  UNL1       -0.0057
     13 C           5.1350    2.5000    0.0000 C.3     1  UNL1        0.0790
     14 H           6.6116   -1.1077    0.0000 H       1  UNL1        0.0390
     15 H           6.2131   -0.4174    0.0000 H       1  UNL1        0.0390
     16 H           5.6720    0.8100    0.0000 H       1  UNL1        0.0658
     17 H           4.2690   -1.6200    0.0000 H       1  UNL1        0.0622
     18 H           2.8660   -0.8100    0.0000 H       1  UNL1        0.0655
     19 H           6.5571   -3.0369    0.0000 H       1  UNL1        0.0306
     20 H           7.4040   -2.8100    0.0000 H       1  UNL1        0.0306
     21 H           7.1771   -1.9631    0.0000 H       1  UNL1        0.0306
     22 H           5.4450    1.9631    0.0000 H       1  UNL1        0.0660
     23 H           5.6720    2.8100    0.0000 H       1  UNL1        0.0660
     24 H           4.8250    3.0369    0.0000 H       1  UNL1        0.0660
     25 H           2.0000    0.6900    0.0000 H       1  UNL1        0.2923
@<TRIPOS>BOND
     1     1     8    1
     2     1    13    1
     3     2     9    1
     4     2    25    1
     5     3    11    2
     6     4     5    1
     7     4     6   ar
     8     4     7   ar
     9     5    11    1
    10     5    14    1
    11     5    15    1
    12     6     8   ar
    13     6    16    1
    14     7    10   ar
    15     7    17    1
    16     8     9   ar
    17     9    10   ar
    18    10    18    1
    19    11    12    1
    20    12    19    1
    21    12    20    1
    22    12    21    1
    23    13    22    1
    24    13    23    1
    25    13    24    1
