@<TRIPOS>MOLECULE
IMPHY015957
 117 124 0 0 0
SMALL
GASTEIGER

@<TRIPOS>ATOM
      1 O           8.6192    5.5403    0.0000 O.3     1  UNL1       -0.3553
      2 O           7.1962   -2.7038    0.0000 O.3     1  UNL1       -0.3454
      3 O           5.4641   -2.7038    0.0000 O.3     1  UNL1       -0.3405
      4 O           7.1962   -4.7038    0.0000 O.3     1  UNL1       -0.3841
      5 O           5.4641   -5.7038    0.0000 O.3     1  UNL1       -0.3864
      6 O           3.7320   -4.7038    0.0000 O.3     1  UNL1       -0.3401
      7 O           3.7320   -1.7038    0.0000 O.3     1  UNL1       -0.3924
      8 O           4.5981   -6.2038    0.0000 O.3     1  UNL1       -0.3405
      9 O           2.0000   -5.7038    0.0000 O.3     1  UNL1       -0.3841
     10 O           2.0000   -7.7038    0.0000 O.3     1  UNL1       -0.3864
     11 O           3.7320   -8.7038    0.0000 O.3     1  UNL1       -0.3865
     12 O           6.3301   -7.2038    0.0000 O.3     1  UNL1       -0.3924
     13 N           8.5688    6.6213    0.0000 N.3     1  UNL1       -0.2885
     14 C           7.2254    3.4931    0.0000 C.3     1  UNL1       -0.0233
     15 C           8.0934    2.9965    0.0000 C.3     1  UNL1       -0.0298
     16 C           7.4309    4.4657    0.0000 C.3     1  UNL1       -0.0025
     17 C           8.0972    1.9965    0.0000 C.3     1  UNL1       -0.0343
     18 C           7.2331    1.4931    0.0000 C.3     1  UNL1       -0.0323
     19 C           8.4192    4.5726    0.0000 C.3     1  UNL1        0.0649
     20 C           7.2211    0.4516    0.0000 C.3     1  UNL1       -0.0260
     21 C           8.8278    3.6664    0.0000 C.3     1  UNL1       -0.0226
     22 C           6.3613    2.9898    0.0000 C.3     1  UNL1       -0.0467
     23 C           7.0286    5.3683    0.0000 C.3     1  UNL1        0.0046
     24 C           6.3652    1.9898    0.0000 C.3     1  UNL1       -0.0489
     25 C           8.1211   -0.0727    0.0000 C.3     1  UNL1       -0.0330
     26 C           9.0092    1.4931    0.0000 C.3     1  UNL1       -0.0494
     27 C           7.7615    6.0311    0.0000 C.3     1  UNL1        0.1239
     28 C           9.0212    0.4516    0.0000 C.3     1  UNL1       -0.0494
     29 C           6.3575    3.9898    0.0000 C.3     1  UNL1       -0.0590
     30 C           6.2712   -0.0727    0.0000 C.3     1  UNL1       -0.0448
     31 C           8.1337   -1.1576    0.0000 C.3     1  UNL1       -0.0232
     32 C           6.3570    0.9549    0.0000 C.3     1  UNL1       -0.0590
     33 C           6.8468    6.4351    0.0000 C.3     1  UNL1       -0.0095
     34 C           6.0502    5.5750    0.0000 C.3     1  UNL1       -0.0582
     35 C           6.2586   -1.1576    0.0000 C.3     1  UNL1       -0.0260
     36 C           7.1962   -1.7038    0.0000 C.3     1  UNL1        0.0621
     37 C           6.7393    7.4293    0.0000 C.3     1  UNL1       -0.0454
     38 C           8.4613    7.6155    0.0000 C.3     1  UNL1        0.0010
     39 C           7.5465    8.0195    0.0000 C.3     1  UNL1       -0.0311
     40 C           7.4390    9.0138    0.0000 C.3     1  UNL1       -0.0613
     41 C           6.3301   -3.2038    0.0000 C.3     1  UNL1        0.1882
     42 C           6.3301   -4.2038    0.0000 C.3     1  UNL1        0.1341
     43 C           5.4641   -4.7038    0.0000 C.3     1  UNL1        0.1144
     44 C           4.5981   -3.2038    0.0000 C.3     1  UNL1        0.1134
     45 C           4.5981   -4.2038    0.0000 C.3     1  UNL1        0.1184
     46 C           3.7320   -2.7038    0.0000 C.3     1  UNL1        0.0730
     47 C           3.7320   -5.7038    0.0000 C.3     1  UNL1        0.1884
     48 C           2.8660   -6.2038    0.0000 C.3     1  UNL1        0.1341
     49 C           2.8660   -7.2038    0.0000 C.3     1  UNL1        0.1141
     50 C           4.5981   -7.2038    0.0000 C.3     1  UNL1        0.1130
     51 C           3.7320   -7.7038    0.0000 C.3     1  UNL1        0.1119
     52 C           5.4641   -7.7038    0.0000 C.3     1  UNL1        0.0730
     53 H           8.8716    2.6548    0.0000 H       1  UNL1        0.0310
     54 H           6.5856    4.3762    0.0000 H       1  UNL1        0.0335
     55 H           8.8284    2.4300    0.0000 H       1  UNL1        0.0306
     56 H           7.9676    1.0653    0.0000 H       1  UNL1        0.0309
     57 H           9.2641    4.6658    0.0000 H       1  UNL1        0.0600
     58 H           9.1952    3.1670    0.0000 H       1  UNL1        0.0293
     59 H           9.3631    3.9792    0.0000 H       1  UNL1        0.0293
     60 H           6.1470    3.5716    0.0000 H       1  UNL1        0.0271
     61 H           5.7512    2.8798    0.0000 H       1  UNL1        0.0271
     62 H           6.6388    4.8862    0.0000 H       1  UNL1        0.0343
     63 H           5.7542    2.0951    0.0000 H       1  UNL1        0.0268
     64 H           6.1554    1.4064    0.0000 H       1  UNL1        0.0268
     65 H           8.8605   -0.4920    0.0000 H       1  UNL1        0.0307
     66 H           9.6212    1.3941    0.0000 H       1  UNL1        0.0268
     67 H           9.2114    2.0792    0.0000 H       1  UNL1        0.0268
     68 H           9.2370   -0.1297    0.0000 H       1  UNL1        0.0268
     69 H           9.6308    0.5647    0.0000 H       1  UNL1        0.0268
     70 H           6.6654    4.5279    0.0000 H       1  UNL1        0.0235
     71 H           5.8193    4.2977    0.0000 H       1  UNL1        0.0235
     72 H           6.0495    3.4517    0.0000 H       1  UNL1        0.0235
     73 H           6.0689    0.5134    0.0000 H       1  UNL1        0.0271
     74 H           5.6591   -0.1717    0.0000 H       1  UNL1        0.0271
     75 H           8.3495   -1.7389    0.0000 H       1  UNL1        0.0293
     76 H           8.7433   -1.0445    0.0000 H       1  UNL1        0.0293
     77 H           6.6690    1.4906    0.0000 H       1  UNL1        0.0235
     78 H           5.8212    1.2670    0.0000 H       1  UNL1        0.0235
     79 H           6.0449    0.4192    0.0000 H       1  UNL1        0.0235
     80 H           6.2282    6.4765    0.0000 H       1  UNL1        0.0306
     81 H           6.6986    5.8331    0.0000 H       1  UNL1        0.0306
     82 H           6.1783    6.1816    0.0000 H       1  UNL1        0.0234
     83 H           5.4436    5.7032    0.0000 H       1  UNL1        0.0234
     84 H           5.9220    4.9684    0.0000 H       1  UNL1        0.0234
     85 H           5.6490   -1.0445    0.0000 H       1  UNL1        0.0290
     86 H           6.0428   -1.7389    0.0000 H       1  UNL1        0.0290
     87 H           7.7337   -2.0127    0.0000 H       1  UNL1        0.0597
     88 H           9.1360    6.3708    0.0000 H       1  UNL1        0.1246
     89 H           6.4658    7.9858    0.0000 H       1  UNL1        0.0270
     90 H           6.1438    7.2567    0.0000 H       1  UNL1        0.0270
     91 H           9.0799    7.5741    0.0000 H       1  UNL1        0.0427
     92 H           8.6095    8.2176    0.0000 H       1  UNL1        0.0427
     93 H           8.0470    8.3855    0.0000 H       1  UNL1        0.0310
     94 H           8.0554    9.0804    0.0000 H       1  UNL1        0.0233
     95 H           7.3724    9.6302    0.0000 H       1  UNL1        0.0233
     96 H           6.8226    8.9471    0.0000 H       1  UNL1        0.0233
     97 H           6.3301   -2.5838    0.0000 H       1  UNL1        0.0937
     98 H           6.3301   -4.8238    0.0000 H       1  UNL1        0.0671
     99 H           4.9272   -5.0138    0.0000 H       1  UNL1        0.0648
    100 H           4.5981   -2.5838    0.0000 H       1  UNL1        0.0647
    101 H           4.5981   -4.8238    0.0000 H       1  UNL1        0.0651
    102 H           7.7331   -4.3938    0.0000 H       1  UNL1        0.2101
    103 H           3.1215   -2.5961    0.0000 H       1  UNL1        0.0584
    104 H           3.5200   -3.2864    0.0000 H       1  UNL1        0.0584
    105 H           6.0010   -6.0138    0.0000 H       1  UNL1        0.2100
    106 H           3.1951   -5.3938    0.0000 H       1  UNL1        0.0938
    107 H           3.1951   -1.3938    0.0000 H       1  UNL1        0.2095
    108 H           2.8660   -5.5838    0.0000 H       1  UNL1        0.0671
    109 H           2.8660   -7.8238    0.0000 H       1  UNL1        0.0648
    110 H           5.1350   -6.8938    0.0000 H       1  UNL1        0.0647
    111 H           4.2690   -8.0138    0.0000 H       1  UNL1        0.0647
    112 H           2.0000   -5.0838    0.0000 H       1  UNL1        0.2101
    113 H           5.0656   -8.1787    0.0000 H       1  UNL1        0.0584
    114 H           5.8626   -8.1787    0.0000 H       1  UNL1        0.0584
    115 H           2.0000   -8.3238    0.0000 H       1  UNL1        0.2100
    116 H           4.2690   -9.0138    0.0000 H       1  UNL1        0.2100
    117 H           6.8671   -7.5138    0.0000 H       1  UNL1        0.2095
@<TRIPOS>BOND
     1     1    19    1
     2    27     1    1
     3    36     2    1
     4    41     2    1
     5     3    41    1
     6     3    44    1
     7    42     4    1
     8     4   102    1
     9    43     5    1
    10     5   105    1
    11    45     6    1
    12    47     6    1
    13     7    46    1
    14     7   107    1
    15     8    47    1
    16     8    50    1
    17    48     9    1
    18     9   112    1
    19    49    10    1
    20    10   115    1
    21    51    11    1
    22    11   116    1
    23    12    52    1
    24    12   117    1
    25    13    27    1
    26    13    38    1
    27    13    88    1
    28    14    15    1
    29    14    16    1
    30    14    22    1
    31    14    29    1
    32    15    17    1
    33    15    21    1
    34    15    53    1
    35    16    19    1
    36    16    23    1
    37    16    54    1
    38    17    18    1
    39    17    26    1
    40    17    55    1
    41    18    20    1
    42    18    24    1
    43    18    56    1
    44    19    21    1
    45    19    57    1
    46    20    25    1
    47    20    30    1
    48    20    32    1
    49    21    58    1
    50    21    59    1
    51    22    24    1
    52    22    60    1
    53    22    61    1
    54    23    27    1
    55    23    34    1
    56    23    62    1
    57    24    63    1
    58    24    64    1
    59    25    28    1
    60    25    31    1
    61    25    65    1
    62    26    28    1
    63    26    66    1
    64    26    67    1
    65    27    33    1
    66    28    68    1
    67    28    69    1
    68    29    70    1
    69    29    71    1
    70    29    72    1
    71    30    35    1
    72    30    73    1
    73    30    74    1
    74    31    36    1
    75    31    75    1
    76    31    76    1
    77    32    77    1
    78    32    78    1
    79    32    79    1
    80    33    37    1
    81    33    80    1
    82    33    81    1
    83    34    82    1
    84    34    83    1
    85    34    84    1
    86    35    36    1
    87    35    85    1
    88    35    86    1
    89    36    87    1
    90    37    39    1
    91    37    89    1
    92    37    90    1
    93    38    39    1
    94    38    91    1
    95    38    92    1
    96    39    40    1
    97    39    93    1
    98    40    94    1
    99    40    95    1
   100    40    96    1
   101    41    42    1
   102    41    97    1
   103    42    43    1
   104    42    98    1
   105    43    45    1
   106    43    99    1
   107    44    45    1
   108    44    46    1
   109    44   100    1
   110    45   101    1
   111    46   103    1
   112    46   104    1
   113    47    48    1
   114    47   106    1
   115    48    49    1
   116    48   108    1
   117    49    51    1
   118    49   109    1
   119    50    51    1
   120    50    52    1
   121    50   110    1
   122    51   111    1
   123    52   113    1
   124    52   114    1
