@<TRIPOS>MOLECULE
IMPHY000603
 60 61 0 0 0
SMALL
GASTEIGER

@<TRIPOS>ATOM
      1 O           6.0010    0.0950    0.0000 O.3     1  UNL1       -0.3836
      2 O           3.4030    0.5950    0.0000 O.2     1  UNL1       -0.2892
      3 O           8.5991    3.5950    0.0000 O.3     1  UNL1       -0.5065
      4 O           2.5369   -0.9050    0.0000 O.3     1  UNL1       -0.5059
      5 O           4.2690   -3.9050    0.0000 O.3     1  UNL1       -0.5064
      6 C           5.1350    1.5950    0.0000 C.3     1  UNL1        0.0057
      7 C           5.1350    0.5950    0.0000 C.3     1  UNL1        0.1216
      8 C           6.0010    2.0950    0.0000 C.ar    1  UNL1       -0.0440
      9 C           4.2690    0.0950    0.0000 C.2     1  UNL1        0.1952
     10 C           7.7331    2.0950    0.0000 C.ar    1  UNL1       -0.0020
     11 C           4.2690   -0.9050    0.0000 C.ar    1  UNL1        0.0619
     12 C           6.8671    1.5950    0.0000 C.ar    1  UNL1       -0.0515
     13 C           6.0010    3.0950    0.0000 C.ar    1  UNL1       -0.0550
     14 C           5.1350   -2.4050    0.0000 C.ar    1  UNL1       -0.0013
     15 C           8.5991    1.5950    0.0000 C.3     1  UNL1       -0.0058
     16 C           5.1350   -1.4050    0.0000 C.ar    1  UNL1       -0.0407
     17 C           7.7331    3.0950    0.0000 C.ar    1  UNL1        0.1203
     18 C           6.0010   -2.9050    0.0000 C.3     1  UNL1       -0.0058
     19 C           3.4030   -1.4050    0.0000 C.ar    1  UNL1        0.1309
     20 C           6.8671    3.5950    0.0000 C.ar    1  UNL1       -0.0196
     21 C           4.2690   -2.9050    0.0000 C.ar    1  UNL1        0.1238
     22 C           3.4030   -2.4050    0.0000 C.ar    1  UNL1        0.0223
     23 C           9.4651    2.0950    0.0000 C.2     1  UNL1       -0.0809
     24 C           6.8671   -2.4050    0.0000 C.2     1  UNL1       -0.0809
     25 C          10.3312    1.5950    0.0000 C.2     1  UNL1       -0.0793
     26 C           7.7331   -2.9050    0.0000 C.2     1  UNL1       -0.0793
     27 C          11.1972    2.0950    0.0000 C.3     1  UNL1       -0.0440
     28 C          10.3312    0.5950    0.0000 C.3     1  UNL1       -0.0440
     29 C           8.5991   -2.4050    0.0000 C.3     1  UNL1       -0.0440
     30 C           7.7331   -3.9050    0.0000 C.3     1  UNL1       -0.0440
     31 H           4.9230    2.1776    0.0000 H       1  UNL1        0.0343
     32 H           4.5244    1.4873    0.0000 H       1  UNL1        0.0343
     33 H           5.1350   -0.0250    0.0000 H       1  UNL1        0.0680
     34 H           6.8671    0.9750    0.0000 H       1  UNL1        0.0624
     35 H           5.4641    3.4050    0.0000 H       1  UNL1        0.0621
     36 H           8.2006    1.1200    0.0000 H       1  UNL1        0.0357
     37 H           8.9976    1.1200    0.0000 H       1  UNL1        0.0357
     38 H           5.6720   -1.0950    0.0000 H       1  UNL1        0.0630
     39 H           5.6025   -3.3800    0.0000 H       1  UNL1        0.0357
     40 H           6.3996   -3.3800    0.0000 H       1  UNL1        0.0357
     41 H           6.8671    4.2150    0.0000 H       1  UNL1        0.0654
     42 H           2.8660   -2.7150    0.0000 H       1  UNL1        0.0691
     43 H           6.5380    0.4050    0.0000 H       1  UNL1        0.2104
     44 H           9.4651    2.7150    0.0000 H       1  UNL1        0.0575
     45 H           6.8671   -1.7850    0.0000 H       1  UNL1        0.0575
     46 H           8.5991    4.2150    0.0000 H       1  UNL1        0.2921
     47 H           2.0000   -1.2150    0.0000 H       1  UNL1        0.2922
     48 H           9.7112    0.5950    0.0000 H       1  UNL1        0.0274
     49 H          10.3312   -0.0250    0.0000 H       1  UNL1        0.0274
     50 H          10.9512    0.5950    0.0000 H       1  UNL1        0.0274
     51 H          11.5072    1.5581    0.0000 H       1  UNL1        0.0274
     52 H          11.7341    2.4050    0.0000 H       1  UNL1        0.0274
     53 H          10.8872    2.6319    0.0000 H       1  UNL1        0.0274
     54 H           3.7320   -4.2150    0.0000 H       1  UNL1        0.2921
     55 H           7.1131   -3.9050    0.0000 H       1  UNL1        0.0274
     56 H           7.7331   -4.5250    0.0000 H       1  UNL1        0.0274
     57 H           8.3531   -3.9050    0.0000 H       1  UNL1        0.0274
     58 H           8.9091   -2.9419    0.0000 H       1  UNL1        0.0274
     59 H           9.1360   -2.0950    0.0000 H       1  UNL1        0.0274
     60 H           8.2891   -1.8681    0.0000 H       1  UNL1        0.0274
@<TRIPOS>BOND
     1     7     1    1
     2     1    43    1
     3     2     9    2
     4     3    17    1
     5     3    46    1
     6     4    19    1
     7     4    47    1
     8     5    21    1
     9     5    54    1
    10     6     7    1
    11     6     8    1
    12     6    31    1
    13     6    32    1
    14     7     9    1
    15     7    33    1
    16     8    12   ar
    17     8    13   ar
    18     9    11    1
    19    10    12   ar
    20    10    15    1
    21    10    17   ar
    22    11    16   ar
    23    11    19   ar
    24    12    34    1
    25    13    20   ar
    26    13    35    1
    27    14    16   ar
    28    14    18    1
    29    14    21   ar
    30    15    23    1
    31    15    36    1
    32    15    37    1
    33    16    38    1
    34    17    20   ar
    35    18    24    1
    36    18    39    1
    37    18    40    1
    38    19    22   ar
    39    20    41    1
    40    21    22   ar
    41    22    42    1
    42    23    25    2
    43    23    44    1
    44    24    26    2
    45    24    45    1
    46    25    27    1
    47    25    28    1
    48    26    29    1
    49    26    30    1
    50    27    51    1
    51    27    52    1
    52    27    53    1
    53    28    48    1
    54    28    49    1
    55    28    50    1
    56    29    58    1
    57    29    59    1
    58    29    60    1
    59    30    55    1
    60    30    56    1
    61    30    57    1
