@<TRIPOS>MOLECULE
IMPHY014032
 36 37 0 0 0
SMALL
GASTEIGER

@<TRIPOS>ATOM
      1 O           2.8660   -4.2500    0.0000 O.3     1  UNL1       -0.4951
      2 O           5.4641    1.2500    0.0000 O.2     1  UNL1       -0.2702
      3 N           3.7320    1.2500    0.0000 N.am    1  UNL1       -0.3110
      4 C           2.8660   -0.2500    0.0000 C.3     1  UNL1       -0.0120
      5 C           3.7320    0.2500    0.0000 C.3     1  UNL1        0.0159
      6 C           2.8660   -1.2500    0.0000 C.ar    1  UNL1       -0.0457
      7 C           3.7320   -1.7500    0.0000 C.ar    1  UNL1       -0.0551
      8 C           2.0000   -1.7500    0.0000 C.ar    1  UNL1       -0.0551
      9 C           3.7320   -2.7500    0.0000 C.ar    1  UNL1       -0.0197
     10 C           2.0000   -2.7500    0.0000 C.ar    1  UNL1       -0.0197
     11 C           4.5981    1.7500    0.0000 C.2     1  UNL1        0.2441
     12 C           2.8660   -3.2500    0.0000 C.ar    1  UNL1        0.1201
     13 C           4.5981    2.7500    0.0000 C.ar    1  UNL1        0.0367
     14 C           5.4641    3.2500    0.0000 C.ar    1  UNL1       -0.0496
     15 C           3.7320    3.2500    0.0000 C.ar    1  UNL1       -0.0496
     16 C           5.4641    4.2500    0.0000 C.ar    1  UNL1       -0.0610
     17 C           3.7320    4.2500    0.0000 C.ar    1  UNL1       -0.0610
     18 C           4.5981    4.7500    0.0000 C.ar    1  UNL1       -0.0617
     19 C           2.0000   -4.7500    0.0000 C.3     1  UNL1        0.0788
     20 H           2.6540    0.3326    0.0000 H       1  UNL1        0.0328
     21 H           2.2554   -0.3577    0.0000 H       1  UNL1        0.0328
     22 H           3.9441   -0.3326    0.0000 H       1  UNL1        0.0465
     23 H           4.3426    0.3577    0.0000 H       1  UNL1        0.0465
     24 H           3.1951    1.5600    0.0000 H       1  UNL1        0.1490
     25 H           4.2690   -1.4400    0.0000 H       1  UNL1        0.0621
     26 H           1.4631   -1.4400    0.0000 H       1  UNL1        0.0621
     27 H           4.2690   -3.0600    0.0000 H       1  UNL1        0.0654
     28 H           1.4631   -3.0600    0.0000 H       1  UNL1        0.0654
     29 H           6.0010    2.9400    0.0000 H       1  UNL1        0.0625
     30 H           3.1951    2.9400    0.0000 H       1  UNL1        0.0625
     31 H           6.0010    4.5600    0.0000 H       1  UNL1        0.0618
     32 H           3.1951    4.5600    0.0000 H       1  UNL1        0.0618
     33 H           4.5981    5.3700    0.0000 H       1  UNL1        0.0618
     34 H           1.6900   -4.2131    0.0000 H       1  UNL1        0.0660
     35 H           1.4631   -5.0600    0.0000 H       1  UNL1        0.0660
     36 H           2.3100   -5.2869    0.0000 H       1  UNL1        0.0660
@<TRIPOS>BOND
     1     1    12    1
     2     1    19    1
     3     2    11    2
     4     3     5    1
     5     3    11   am
     6     3    24    1
     7     4     5    1
     8     4     6    1
     9     4    20    1
    10     4    21    1
    11     5    22    1
    12     5    23    1
    13     6     7   ar
    14     6     8   ar
    15     7     9   ar
    16     7    25    1
    17     8    10   ar
    18     8    26    1
    19     9    12   ar
    20     9    27    1
    21    10    12   ar
    22    10    28    1
    23    11    13    1
    24    13    14   ar
    25    13    15   ar
    26    14    16   ar
    27    14    29    1
    28    15    17   ar
    29    15    30    1
    30    16    18   ar
    31    16    31    1
    32    17    18   ar
    33    17    32    1
    34    18    33    1
    35    19    34    1
    36    19    35    1
    37    19    36    1
