@<TRIPOS>MOLECULE
IMPHY012957
 74 78 0 0 0
SMALL
GASTEIGER

@<TRIPOS>ATOM
      1 O           4.0148    2.6179    0.0000 O.3     1  UNL1       -0.4603
      2 O           7.2276    3.8255    0.0000 O.2     1  UNL1       -0.2964
      3 O          11.1947   -0.6525    0.0000 O.3     1  UNL1       -0.4554
      4 O           5.7645   -1.3269    0.0000 O.3     1  UNL1       -0.3803
      5 O           3.9825   -2.2349    0.0000 O.3     1  UNL1       -0.4661
      6 O           3.1962   -0.6916    0.0000 O.2     1  UNL1       -0.2479
      7 O          11.9332    0.9979    0.0000 O.2     1  UNL1       -0.2505
      8 O          10.9615   -3.7596    0.0000 O.2     1  UNL1       -0.4706
      9 O           2.5621    1.6746    0.0000 O.2     1  UNL1       -0.2512
     10 C           6.2498    1.0110    0.0000 C.3     1  UNL1        0.0393
     11 C           4.9782    0.2163    0.0000 C.3     1  UNL1        0.0166
     12 C           7.4709    0.1453    0.0000 C.3     1  UNL1       -0.0071
     13 C           4.2010    0.8457    0.0000 C.3     1  UNL1        0.0094
     14 C           5.9910    1.9769    0.0000 C.3     1  UNL1        0.0592
     15 C           4.5594    1.7792    0.0000 C.3     1  UNL1        0.1183
     16 C           8.2999    0.7045    0.0000 C.2     1  UNL1       -0.0643
     17 C           6.7276    2.9595    0.0000 C.2     1  UNL1        0.1470
     18 C           8.0243    1.6658    0.0000 C.3     1  UNL1       -0.0182
     19 C           7.5275   -0.8948    0.0000 C.3     1  UNL1       -0.0447
     20 C           9.3237   -0.7761    0.0000 C.3     1  UNL1        0.0310
     21 C           9.2430    0.2624    0.0000 C.2     1  UNL1       -0.0497
     22 C           8.4602   -1.3586    0.0000 C.3     1  UNL1       -0.0396
     23 C           6.5087    0.0450    0.0000 C.3     1  UNL1       -0.0519
     24 C           4.9258   -0.7823    0.0000 C.3     1  UNL1        0.1558
     25 C           3.2351    1.1045    0.0000 C.3     1  UNL1       -0.0560
     26 C           3.4939    0.1385    0.0000 C.3     1  UNL1       -0.0560
     27 C          10.2952   -1.2593    0.0000 C.3     1  UNL1        0.1399
     28 C          10.1283    0.8897    0.0000 C.3     1  UNL1        0.0670
     29 C           9.4012   -1.7731    0.0000 C.3     1  UNL1       -0.0521
     30 C           4.0348   -1.2363    0.0000 C.2     1  UNL1        0.3361
     31 C          11.1107    0.4292    0.0000 C.2     1  UNL1        0.3118
     32 C          10.3611   -2.2571    0.0000 C.ar    1  UNL1        0.0312
     33 C           3.0161    2.5656    0.0000 C.2     1  UNL1        0.3042
     34 C           9.5926   -2.8969    0.0000 C.ar    1  UNL1       -0.0172
     35 C          11.2071   -2.7903    0.0000 C.ar    1  UNL1        0.0984
     36 C           2.4715    3.4042    0.0000 C.3     1  UNL1        0.0332
     37 C           9.9636   -3.8255    0.0000 C.ar    1  UNL1        0.0921
     38 C           3.0915   -2.6889    0.0000 C.3     1  UNL1        0.0817
     39 H           4.4118   -0.0358    0.0000 H       1  UNL1        0.0347
     40 H           6.9280   -0.1542    0.0000 H       1  UNL1        0.0355
     41 H           5.7710    2.7979    0.0000 H       1  UNL1        0.0417
     42 H           3.9428    1.7144    0.0000 H       1  UNL1        0.0746
     43 H           8.0293    2.2858    0.0000 H       1  UNL1        0.0318
     44 H           8.6386    1.7496    0.0000 H       1  UNL1        0.0318
     45 H           7.3505   -1.4890    0.0000 H       1  UNL1        0.0272
     46 H           6.9118   -0.8221    0.0000 H       1  UNL1        0.0272
     47 H           8.8897   -1.8057    0.0000 H       1  UNL1        0.0275
     48 H           8.0932   -1.8583    0.0000 H       1  UNL1        0.0275
     49 H           7.1075    0.2055    0.0000 H       1  UNL1        0.0239
     50 H           6.6691   -0.5538    0.0000 H       1  UNL1        0.0239
     51 H           5.9098   -0.1154    0.0000 H       1  UNL1        0.0239
     52 H           5.4782   -0.5008    0.0000 H       1  UNL1        0.0713
     53 H           3.0746    0.5056    0.0000 H       1  UNL1        0.0236
     54 H           2.6362    1.2649    0.0000 H       1  UNL1        0.0236
     55 H           3.3956    1.7034    0.0000 H       1  UNL1        0.0236
     56 H           3.9323   -0.2999    0.0000 H       1  UNL1        0.0236
     57 H           3.0555   -0.2999    0.0000 H       1  UNL1        0.0236
     58 H           3.0555    0.5770    0.0000 H       1  UNL1        0.0236
     59 H          10.8519   -1.5321    0.0000 H       1  UNL1        0.0795
     60 H           9.6885    1.3268    0.0000 H       1  UNL1        0.0423
     61 H          10.4836    1.3978    0.0000 H       1  UNL1        0.0423
     62 H          10.0193   -1.7251    0.0000 H       1  UNL1        0.0239
     63 H           9.4492   -2.3913    0.0000 H       1  UNL1        0.0239
     64 H           8.7830   -1.8211    0.0000 H       1  UNL1        0.0239
     65 H           5.7320   -1.9461    0.0000 H       1  UNL1        0.2105
     66 H           8.9916   -2.7446    0.0000 H       1  UNL1        0.0653
     67 H          11.7829   -2.5602    0.0000 H       1  UNL1        0.1033
     68 H           1.9515    3.0666    0.0000 H       1  UNL1        0.0342
     69 H           2.1338    3.9242    0.0000 H       1  UNL1        0.0342
     70 H           2.9914    3.7419    0.0000 H       1  UNL1        0.0342
     71 H           9.6331   -4.3501    0.0000 H       1  UNL1        0.1029
     72 H           3.3730   -3.2413    0.0000 H       1  UNL1        0.0661
     73 H           2.5390   -2.9704    0.0000 H       1  UNL1        0.0661
     74 H           2.8100   -2.1365    0.0000 H       1  UNL1        0.0661
@<TRIPOS>BOND
     1    15     1    1
     2     1    33    1
     3     2    17    2
     4     3    27    1
     5     3    31    1
     6     4    24    1
     7     4    65    1
     8     5    30    1
     9     5    38    1
    10     6    30    2
    11     7    31    2
    12     8    35   ar
    13     8    37   ar
    14     9    33    2
    15    10    11    1
    16    10    12    1
    17    10    17    1
    18    10    23    1
    19    11    13    1
    20    11    24    1
    21    11    39    1
    22    12    16    1
    23    12    19    1
    24    12    40    1
    25    13    15    1
    26    13    25    1
    27    13    26    1
    28    14    15    1
    29    14    17    1
    30    14    18    1
    31    14    41    1
    32    15    42    1
    33    16    18    1
    34    16    21    2
    35    18    43    1
    36    18    44    1
    37    19    22    1
    38    19    45    1
    39    19    46    1
    40    20    21    1
    41    20    22    1
    42    20    27    1
    43    20    29    1
    44    21    28    1
    45    22    47    1
    46    22    48    1
    47    23    49    1
    48    23    50    1
    49    23    51    1
    50    24    30    1
    51    24    52    1
    52    25    53    1
    53    25    54    1
    54    25    55    1
    55    26    56    1
    56    26    57    1
    57    26    58    1
    58    27    32    1
    59    27    59    1
    60    28    31    1
    61    28    60    1
    62    28    61    1
    63    29    62    1
    64    29    63    1
    65    29    64    1
    66    32    34   ar
    67    32    35   ar
    68    33    36    1
    69    34    37   ar
    70    34    66    1
    71    35    67    1
    72    36    68    1
    73    36    69    1
    74    36    70    1
    75    37    71    1
    76    38    72    1
    77    38    73    1
    78    38    74    1
