@<TRIPOS>MOLECULE
IMPHY006306
 112 111 0 0 0
SMALL
GASTEIGER

@<TRIPOS>ATOM
      1 O          15.8564    0.3100    0.0000 O.3     1  UNL1       -0.4608
      2 O          18.4545    0.8100    0.0000 O.3     1  UNL1       -0.4556
      3 O          14.9904    1.8100    0.0000 O.2     1  UNL1       -0.2509
      4 O          19.3205   -0.6900    0.0000 O.2     1  UNL1       -0.2508
      5 O          16.7224   -1.1900    0.0000 O.3     1  UNL1       -0.3912
      6 C           8.0622    0.8100    0.0000 C.3     1  UNL1       -0.0531
      7 C           8.9282    0.3100    0.0000 C.3     1  UNL1       -0.0531
      8 C           7.1962    0.3100    0.0000 C.3     1  UNL1       -0.0531
      9 C           9.7942    0.8100    0.0000 C.3     1  UNL1       -0.0531
     10 C           6.3301    0.8100    0.0000 C.3     1  UNL1       -0.0531
     11 C          10.6603    0.3100    0.0000 C.3     1  UNL1       -0.0531
     12 C           5.4641    0.3100    0.0000 C.3     1  UNL1       -0.0531
     13 C          11.5263    0.8100    0.0000 C.3     1  UNL1       -0.0530
     14 C           4.5981    0.8100    0.0000 C.3     1  UNL1       -0.0531
     15 C          12.3923    0.3100    0.0000 C.3     1  UNL1       -0.0526
     16 C           3.7320    0.3100    0.0000 C.3     1  UNL1       -0.0533
     17 C          13.2583    0.8100    0.0000 C.3     1  UNL1       -0.0430
     18 C           2.8660    0.8100    0.0000 C.3     1  UNL1       -0.0559
     19 C          14.1244    0.3100    0.0000 C.3     1  UNL1        0.0449
     20 C          22.7846    0.3100    0.0000 C.3     1  UNL1       -0.0530
     21 C          23.6506    0.8100    0.0000 C.3     1  UNL1       -0.0528
     22 C          30.5788    0.8100    0.0000 C.3     1  UNL1       -0.0530
     23 C          29.7128    0.3100    0.0000 C.3     1  UNL1       -0.0528
     24 C          21.9186    0.8100    0.0000 C.3     1  UNL1       -0.0526
     25 C          24.5167    0.3100    0.0000 C.3     1  UNL1       -0.0496
     26 C          31.4449    0.3100    0.0000 C.3     1  UNL1       -0.0531
     27 C          28.8468    0.8100    0.0000 C.3     1  UNL1       -0.0496
     28 C          21.0526    0.3100    0.0000 C.3     1  UNL1       -0.0430
     29 C          25.3827    0.8100    0.0000 C.3     1  UNL1       -0.0348
     30 C          32.3109    0.8100    0.0000 C.3     1  UNL1       -0.0533
     31 C          27.9808    0.3100    0.0000 C.3     1  UNL1       -0.0348
     32 C           2.0000    0.3100    0.0000 C.3     1  UNL1       -0.0653
     33 C          20.1865    0.8100    0.0000 C.3     1  UNL1        0.0450
     34 C          14.9904    0.8100    0.0000 C.2     1  UNL1        0.3072
     35 C          33.1769    0.3100    0.0000 C.3     1  UNL1       -0.0559
     36 C          26.2487    0.3100    0.0000 C.2     1  UNL1       -0.0879
     37 C          27.1147    0.8100    0.0000 C.2     1  UNL1       -0.0879
     38 C          17.5885    0.3100    0.0000 C.3     1  UNL1        0.1597
     39 C          16.7224    0.8100    0.0000 C.3     1  UNL1        0.1315
     40 C          19.3205    0.3100    0.0000 C.2     1  UNL1        0.3075
     41 C          34.0429    0.8100    0.0000 C.3     1  UNL1       -0.0653
     42 C          17.5885   -0.6900    0.0000 C.3     1  UNL1        0.0844
     43 H           8.4607    1.2850    0.0000 H       1  UNL1        0.0265
     44 H           7.6636    1.2850    0.0000 H       1  UNL1        0.0265
     45 H           8.5297   -0.1649    0.0000 H       1  UNL1        0.0265
     46 H           9.3267   -0.1649    0.0000 H       1  UNL1        0.0265
     47 H           6.7976   -0.1649    0.0000 H       1  UNL1        0.0265
     48 H           7.5947   -0.1649    0.0000 H       1  UNL1        0.0265
     49 H          10.1928    1.2850    0.0000 H       1  UNL1        0.0265
     50 H           9.3957    1.2850    0.0000 H       1  UNL1        0.0265
     51 H           6.7287    1.2850    0.0000 H       1  UNL1        0.0265
     52 H           5.9316    1.2850    0.0000 H       1  UNL1        0.0265
     53 H          10.2617   -0.1649    0.0000 H       1  UNL1        0.0265
     54 H          11.0588   -0.1649    0.0000 H       1  UNL1        0.0265
     55 H           5.0656   -0.1649    0.0000 H       1  UNL1        0.0265
     56 H           5.8626   -0.1649    0.0000 H       1  UNL1        0.0265
     57 H          11.9248    1.2850    0.0000 H       1  UNL1        0.0265
     58 H          11.1278    1.2850    0.0000 H       1  UNL1        0.0265
     59 H           4.9966    1.2850    0.0000 H       1  UNL1        0.0265
     60 H           4.1996    1.2850    0.0000 H       1  UNL1        0.0265
     61 H          11.9938   -0.1649    0.0000 H       1  UNL1        0.0265
     62 H          12.7908   -0.1649    0.0000 H       1  UNL1        0.0265
     63 H           3.3335   -0.1649    0.0000 H       1  UNL1        0.0265
     64 H           4.1306   -0.1649    0.0000 H       1  UNL1        0.0265
     65 H          13.6569    1.2850    0.0000 H       1  UNL1        0.0270
     66 H          12.8598    1.2850    0.0000 H       1  UNL1        0.0270
     67 H           3.2646    1.2850    0.0000 H       1  UNL1        0.0263
     68 H           2.4675    1.2850    0.0000 H       1  UNL1        0.0263
     69 H          13.7258   -0.1649    0.0000 H       1  UNL1        0.0377
     70 H          14.5229   -0.1649    0.0000 H       1  UNL1        0.0377
     71 H          22.3861   -0.1649    0.0000 H       1  UNL1        0.0265
     72 H          23.1831   -0.1649    0.0000 H       1  UNL1        0.0265
     73 H          24.0492    1.2850    0.0000 H       1  UNL1        0.0265
     74 H          23.2521    1.2850    0.0000 H       1  UNL1        0.0265
     75 H          30.9774    1.2850    0.0000 H       1  UNL1        0.0265
     76 H          30.1803    1.2850    0.0000 H       1  UNL1        0.0265
     77 H          29.3143   -0.1649    0.0000 H       1  UNL1        0.0265
     78 H          30.1113   -0.1649    0.0000 H       1  UNL1        0.0265
     79 H          22.3171    1.2850    0.0000 H       1  UNL1        0.0265
     80 H          21.5201    1.2850    0.0000 H       1  UNL1        0.0265
     81 H          24.1181   -0.1649    0.0000 H       1  UNL1        0.0268
     82 H          24.9152   -0.1649    0.0000 H       1  UNL1        0.0268
     83 H          31.0463   -0.1649    0.0000 H       1  UNL1        0.0265
     84 H          31.8434   -0.1649    0.0000 H       1  UNL1        0.0265
     85 H          29.2453    1.2850    0.0000 H       1  UNL1        0.0268
     86 H          28.4483    1.2850    0.0000 H       1  UNL1        0.0268
     87 H          20.6540   -0.1649    0.0000 H       1  UNL1        0.0270
     88 H          21.4511   -0.1649    0.0000 H       1  UNL1        0.0270
     89 H          25.7812    1.2850    0.0000 H       1  UNL1        0.0307
     90 H          24.9842    1.2850    0.0000 H       1  UNL1        0.0307
     91 H          32.7094    1.2850    0.0000 H       1  UNL1        0.0265
     92 H          31.9124    1.2850    0.0000 H       1  UNL1        0.0265
     93 H          27.5822   -0.1649    0.0000 H       1  UNL1        0.0307
     94 H          28.3793   -0.1649    0.0000 H       1  UNL1        0.0307
     95 H           1.6900    0.8469    0.0000 H       1  UNL1        0.0230
     96 H           1.4631    0.0000    0.0000 H       1  UNL1        0.0230
     97 H           2.3100   -0.2269    0.0000 H       1  UNL1        0.0230
     98 H          20.5851    1.2850    0.0000 H       1  UNL1        0.0377
     99 H          19.7880    1.2850    0.0000 H       1  UNL1        0.0377
    100 H          32.7784   -0.1649    0.0000 H       1  UNL1        0.0263
    101 H          33.5754   -0.1649    0.0000 H       1  UNL1        0.0263
    102 H          26.2487   -0.3100    0.0000 H       1  UNL1        0.0569
    103 H          27.1147    1.4300    0.0000 H       1  UNL1        0.0569
    104 H          17.5885    0.9300    0.0000 H       1  UNL1        0.0792
    105 H          17.1210    1.2850    0.0000 H       1  UNL1        0.0736
    106 H          16.3239    1.2850    0.0000 H       1  UNL1        0.0736
    107 H          34.3529    0.2731    0.0000 H       1  UNL1        0.0230
    108 H          34.5799    1.1200    0.0000 H       1  UNL1        0.0230
    109 H          33.7329    1.3469    0.0000 H       1  UNL1        0.0230
    110 H          17.8005   -1.2726    0.0000 H       1  UNL1        0.0595
    111 H          18.1990   -0.5823    0.0000 H       1  UNL1        0.0595
    112 H          16.7224   -1.8100    0.0000 H       1  UNL1        0.2096
@<TRIPOS>BOND
     1     1    34    1
     2     1    39    1
     3     2    38    1
     4     2    40    1
     5     3    34    2
     6     4    40    2
     7     5    42    1
     8     5   112    1
     9     6     7    1
    10     6     8    1
    11     6    43    1
    12     6    44    1
    13     7     9    1
    14     7    45    1
    15     7    46    1
    16     8    10    1
    17     8    47    1
    18     8    48    1
    19     9    11    1
    20     9    49    1
    21     9    50    1
    22    10    12    1
    23    10    51    1
    24    10    52    1
    25    11    13    1
    26    11    53    1
    27    11    54    1
    28    12    14    1
    29    12    55    1
    30    12    56    1
    31    13    15    1
    32    13    57    1
    33    13    58    1
    34    14    16    1
    35    14    59    1
    36    14    60    1
    37    15    17    1
    38    15    61    1
    39    15    62    1
    40    16    18    1
    41    16    63    1
    42    16    64    1
    43    17    19    1
    44    17    65    1
    45    17    66    1
    46    18    32    1
    47    18    67    1
    48    18    68    1
    49    19    34    1
    50    19    69    1
    51    19    70    1
    52    20    21    1
    53    20    24    1
    54    20    71    1
    55    20    72    1
    56    21    25    1
    57    21    73    1
    58    21    74    1
    59    22    23    1
    60    22    26    1
    61    22    75    1
    62    22    76    1
    63    23    27    1
    64    23    77    1
    65    23    78    1
    66    24    28    1
    67    24    79    1
    68    24    80    1
    69    25    29    1
    70    25    81    1
    71    25    82    1
    72    26    30    1
    73    26    83    1
    74    26    84    1
    75    27    31    1
    76    27    85    1
    77    27    86    1
    78    28    33    1
    79    28    87    1
    80    28    88    1
    81    29    36    1
    82    29    89    1
    83    29    90    1
    84    30    35    1
    85    30    91    1
    86    30    92    1
    87    31    37    1
    88    31    93    1
    89    31    94    1
    90    32    95    1
    91    32    96    1
    92    32    97    1
    93    33    40    1
    94    33    98    1
    95    33    99    1
    96    35    41    1
    97    35   100    1
    98    35   101    1
    99    36    37    2
   100    36   102    1
   101    37   103    1
   102    38    39    1
   103    38    42    1
   104    38   104    1
   105    39   105    1
   106    39   106    1
   107    41   107    1
   108    41   108    1
   109    41   109    1
   110    42   110    1
   111    42   111    1
