@<TRIPOS>MOLECULE
IMPHY000246
 57 59 0 0 0
SMALL
GASTEIGER

@<TRIPOS>ATOM
      1 O           8.3834   -2.4793    0.0000 O.3     1  UNL1       -0.3612
      2 O           8.4469   -0.1927    0.0000 O.3     1  UNL1       -0.4546
      3 O           5.6417    1.0598    0.0000 O.3     1  UNL1       -0.4533
      4 O           4.2404    0.2508    0.0000 O.3     1  UNL1       -0.4527
      5 O           8.9085    1.5226    0.0000 O.2     1  UNL1       -0.2453
      6 O           2.9945   -2.0363    0.0000 O.3     1  UNL1       -0.4646
      7 O           2.6835   -0.7889    0.0000 O.2     1  UNL1       -0.2452
      8 O           3.9944    1.5952    0.0000 O.2     1  UNL1       -0.2453
      9 O           2.5252    0.0098    0.0000 O.2     1  UNL1       -0.2511
     10 C           7.3884   -2.5836    0.0000 C.3     1  UNL1        0.0972
     11 C           7.7952   -1.6701    0.0000 C.3     1  UNL1        0.1255
     12 C           7.5873   -0.6920    0.0000 C.3     1  UNL1        0.1425
     13 C           6.8441   -0.0228    0.0000 C.3     1  UNL1        0.0708
     14 C           6.5224   -3.0836    0.0000 C.3     1  UNL1       -0.0180
     15 C           6.9817   -3.4972    0.0000 C.3     1  UNL1       -0.0332
     16 C           5.8496    0.0817    0.0000 C.3     1  UNL1        0.1549
     17 C           5.5279   -2.9791    0.0000 C.3     1  UNL1       -0.0312
     18 C           7.2508    0.8843    0.0000 C.2     1  UNL1        0.0399
     19 C           4.9836   -0.4183    0.0000 C.3     1  UNL1        0.1716
     20 C           8.2393    0.7795    0.0000 C.2     1  UNL1        0.3355
     21 C           4.7847   -2.3100    0.0000 C.2     1  UNL1       -0.0703
     22 C           4.5768   -1.3318    0.0000 C.2     1  UNL1        0.0764
     23 C           6.7523    1.7512    0.0000 C.2     1  UNL1       -0.0882
     24 C           3.5823   -1.2273    0.0000 C.2     1  UNL1        0.3383
     25 C           4.9726    1.8030    0.0000 C.2     1  UNL1        0.3347
     26 C           3.3133    0.6255    0.0000 C.2     1  UNL1        0.3046
     27 C           5.2816    2.7540    0.0000 C.2     1  UNL1        0.0265
     28 C           3.1741    1.6157    0.0000 C.3     1  UNL1        0.0333
     29 C           4.6124    3.4972    0.0000 C.3     1  UNL1       -0.0335
     30 C           2.0000   -1.9318    0.0000 C.3     1  UNL1        0.0820
     31 C           6.2597    2.9620    0.0000 C.2     1  UNL1       -0.0890
     32 H           8.5716   -1.3243    0.0000 H       1  UNL1        0.0662
     33 H           8.3642   -1.0367    0.0000 H       1  UNL1        0.0769
     34 H           6.4201    0.7138    0.0000 H       1  UNL1        0.0425
     35 H           6.2702   -3.6500    0.0000 H       1  UNL1        0.0297
     36 H           6.3935   -2.4772    0.0000 H       1  UNL1        0.0297
     37 H           6.4153   -3.2450    0.0000 H       1  UNL1        0.0258
     38 H           6.7295   -4.0636    0.0000 H       1  UNL1        0.0258
     39 H           7.5481   -3.7494    0.0000 H       1  UNL1        0.0258
     40 H           5.2832    0.3339    0.0000 H       1  UNL1        0.0783
     41 H           4.9910   -3.2891    0.0000 H       1  UNL1        0.0308
     42 H           5.6568   -3.5856    0.0000 H       1  UNL1        0.0308
     43 H           5.5981    0.1983    0.0000 H       1  UNL1        0.0826
     44 H           4.2478   -2.6200    0.0000 H       1  UNL1        0.0578
     45 H           7.0632    2.2876    0.0000 H       1  UNL1        0.0540
     46 H           6.1323    1.7522    0.0000 H       1  UNL1        0.0540
     47 H           3.7880    1.7020    0.0000 H       1  UNL1        0.0342
     48 H           3.0878    2.2297    0.0000 H       1  UNL1        0.0342
     49 H           2.5601    1.5294    0.0000 H       1  UNL1        0.0342
     50 H           5.0732    3.9121    0.0000 H       1  UNL1        0.0280
     51 H           4.1976    3.9580    0.0000 H       1  UNL1        0.0280
     52 H           4.1517    3.0823    0.0000 H       1  UNL1        0.0280
     53 H           2.0648   -1.3152    0.0000 H       1  UNL1        0.0661
     54 H           1.3834   -1.8670    0.0000 H       1  UNL1        0.0661
     55 H           1.9352   -2.5484    0.0000 H       1  UNL1        0.0661
     56 H           6.6746    2.5012    0.0000 H       1  UNL1        0.0540
     57 H           6.4513    3.5516    0.0000 H       1  UNL1        0.0540
@<TRIPOS>BOND
     1     1    10    1
     2     1    11    1
     3     2    12    1
     4     2    20    1
     5    16     3    1
     6     3    25    1
     7    19     4    1
     8     4    26    1
     9     5    20    2
    10     6    24    1
    11     6    30    1
    12     7    24    2
    13     8    25    2
    14     9    26    2
    15    10    11    1
    16    10    14    1
    17    10    15    1
    18    11    12    1
    19    11    32    1
    20    12    13    1
    21    12    33    1
    22    13    16    1
    23    13    18    1
    24    13    34    1
    25    14    17    1
    26    14    35    1
    27    14    36    1
    28    15    37    1
    29    15    38    1
    30    15    39    1
    31    16    19    1
    32    16    40    1
    33    17    21    1
    34    17    41    1
    35    17    42    1
    36    18    20    1
    37    18    23    2
    38    19    22    1
    39    19    43    1
    40    21    22    2
    41    21    44    1
    42    22    24    1
    43    23    45    1
    44    23    46    1
    45    25    27    1
    46    26    28    1
    47    27    29    1
    48    27    31    2
    49    28    47    1
    50    28    48    1
    51    28    49    1
    52    29    50    1
    53    29    51    1
    54    29    52    1
    55    30    53    1
    56    30    54    1
    57    30    55    1
    58    31    56    1
    59    31    57    1
