@<TRIPOS>MOLECULE
IMPHY004131
 51 53 0 0 0
SMALL
GASTEIGER

@<TRIPOS>ATOM
      1 O           2.3100    3.0445    0.0000 O.3     1  UNL1       -0.4802
      2 O           3.8100    3.9105    0.0000 O.2     1  UNL1       -0.2504
      3 O           6.8892   -3.9105    0.0000 O.2     1  UNL1       -0.4708
      4 C           4.6760    0.6785    0.0000 C.3     1  UNL1       -0.0217
      5 C           4.6760    1.6785    0.0000 C.3     1  UNL1       -0.0193
      6 C           3.8100    2.1785    0.0000 C.3     1  UNL1        0.0681
      7 C           5.5700    0.1438    0.0000 C.3     1  UNL1       -0.0142
      8 C           3.8100    0.1785    0.0000 C.3     1  UNL1       -0.0468
      9 C           5.5700    2.2132    0.0000 C.3     1  UNL1       -0.0450
     10 C           2.9440    1.6785    0.0000 C.3     1  UNL1       -0.0372
     11 C           2.9440    0.6785    0.0000 C.3     1  UNL1       -0.0515
     12 C           4.6760   -0.3215    0.0000 C.3     1  UNL1       -0.0587
     13 C           6.4760    1.6993    0.0000 C.3     1  UNL1       -0.0314
     14 C           6.4760    0.6577    0.0000 C.2     1  UNL1       -0.0730
     15 C           5.5584   -0.8561    0.0000 C.3     1  UNL1       -0.0419
     16 C           4.3100    3.0445    0.0000 C.3     1  UNL1       -0.0491
     17 C           3.3100    3.0445    0.0000 C.2     1  UNL1        0.3110
     18 C           6.4186   -1.3661    0.0000 C.3     1  UNL1       -0.0241
     19 C           7.3401    0.1543    0.0000 C.2     1  UNL1       -0.0992
     20 C           6.4070   -2.3660    0.0000 C.ar    1  UNL1       -0.0097
     21 C           5.5913   -2.9444    0.0000 C.ar    1  UNL1       -0.0208
     22 C           7.2092   -2.9631    0.0000 C.ar    1  UNL1        0.0948
     23 C           5.8893   -3.8990    0.0000 C.ar    1  UNL1        0.0919
     24 H           4.6695    2.5285    0.0000 H       1  UNL1        0.0317
     25 H           6.1039   -0.1713    0.0000 H       1  UNL1        0.0351
     26 H           3.4115   -0.2965    0.0000 H       1  UNL1        0.0271
     27 H           4.2085   -0.2965    0.0000 H       1  UNL1        0.0271
     28 H           5.9636    2.6922    0.0000 H       1  UNL1        0.0271
     29 H           5.1654    2.6829    0.0000 H       1  UNL1        0.0271
     30 H           2.7319    2.2611    0.0000 H       1  UNL1        0.0276
     31 H           2.3334    1.5708    0.0000 H       1  UNL1        0.0276
     32 H           2.3334    0.7862    0.0000 H       1  UNL1        0.0266
     33 H           2.7319    0.0959    0.0000 H       1  UNL1        0.0266
     34 H           4.0560   -0.3215    0.0000 H       1  UNL1        0.0235
     35 H           4.6760   -0.9415    0.0000 H       1  UNL1        0.0235
     36 H           5.2960   -0.3215    0.0000 H       1  UNL1        0.0235
     37 H           7.0869    1.5932    0.0000 H       1  UNL1        0.0310
     38 H           6.6851    2.2830    0.0000 H       1  UNL1        0.0310
     39 H           4.9491   -0.7414    0.0000 H       1  UNL1        0.0274
     40 H           5.3396   -1.4362    0.0000 H       1  UNL1        0.0274
     41 H           4.8469    2.7345    0.0000 H       1  UNL1        0.0240
     42 H           4.6200    3.5814    0.0000 H       1  UNL1        0.0240
     43 H           3.7731    3.3545    0.0000 H       1  UNL1        0.0240
     44 H           7.0279   -1.4808    0.0000 H       1  UNL1        0.0314
     45 H           6.6374   -0.7860    0.0000 H       1  UNL1        0.0314
     46 H           7.3377   -0.4657    0.0000 H       1  UNL1        0.0534
     47 H           7.8782    0.4623    0.0000 H       1  UNL1        0.0534
     48 H           2.0000    3.5814    0.0000 H       1  UNL1        0.2951
     49 H           5.0039   -2.7460    0.0000 H       1  UNL1        0.0652
     50 H           7.8010   -2.7784    0.0000 H       1  UNL1        0.1032
     51 H           5.5191   -4.3963    0.0000 H       1  UNL1        0.1029
@<TRIPOS>BOND
     1     1    17    1
     2     1    48    1
     3     2    17    2
     4     3    22   ar
     5     3    23   ar
     6     4     5    1
     7     4     7    1
     8     4     8    1
     9     4    12    1
    10     5     6    1
    11     5     9    1
    12     5    24    1
    13     6    10    1
    14     6    16    1
    15     6    17    1
    16     7    14    1
    17     7    15    1
    18     7    25    1
    19     8    11    1
    20     8    26    1
    21     8    27    1
    22     9    13    1
    23     9    28    1
    24     9    29    1
    25    10    11    1
    26    10    30    1
    27    10    31    1
    28    11    32    1
    29    11    33    1
    30    12    34    1
    31    12    35    1
    32    12    36    1
    33    13    14    1
    34    13    37    1
    35    13    38    1
    36    14    19    2
    37    15    18    1
    38    15    39    1
    39    15    40    1
    40    16    41    1
    41    16    42    1
    42    16    43    1
    43    18    20    1
    44    18    44    1
    45    18    45    1
    46    19    46    1
    47    19    47    1
    48    20    21   ar
    49    20    22   ar
    50    21    23   ar
    51    21    49    1
    52    22    50    1
    53    23    51    1
