@<TRIPOS>MOLECULE
IMPHY003218
 52 56 0 0 0
SMALL
GASTEIGER

@<TRIPOS>ATOM
      1 O           2.4051   -2.1955    0.0000 O.3     1  UNL1       -0.3568
      2 O           2.7370    0.3794    0.0000 O.3     1  UNL1       -0.4843
      3 O           5.4691   -0.6206    0.0000 O.2     1  UNL1       -0.2914
      4 O           4.4934    3.5336    0.0000 O.3     1  UNL1       -0.4815
      5 O           5.2213   -1.3578    0.0000 O.2     1  UNL1       -0.2891
      6 O           3.4404   -4.7378    0.0000 O.2     1  UNL1       -0.4917
      7 O           5.3974   -4.3254    0.0000 O.2     1  UNL1       -0.4913
      8 C           3.6030   -1.1206    0.0000 C.3     1  UNL1        0.1011
      9 C           3.3938   -2.0925    0.0000 C.3     1  UNL1        0.1662
     10 C           2.7370   -0.6206    0.0000 C.3     1  UNL1        0.1366
     11 C           2.0000   -1.2877    0.0000 C.3     1  UNL1        0.0871
     12 C           4.4691   -0.6206    0.0000 C.2     1  UNL1        0.1768
     13 C           3.0832   -3.0430    0.0000 C.2     1  UNL1        0.0012
     14 C           4.3723   -1.8862    0.0000 C.2     1  UNL1        0.1961
     15 C           4.4691    0.3794    0.0000 C.ar    1  UNL1        0.0604
     16 C           3.6030    0.8794    0.0000 C.ar    1  UNL1        0.1421
     17 C           3.5870    1.9209    0.0000 C.ar    1  UNL1        0.0588
     18 C           3.7510   -3.7873    0.0000 C.2     1  UNL1        0.1608
     19 C           5.0402   -2.6305    0.0000 C.2     1  UNL1        0.0294
     20 C           5.3791    0.8862    0.0000 C.ar    1  UNL1       -0.0442
     21 C           4.7295   -3.5811    0.0000 C.2     1  UNL1        0.1647
     22 C           4.4850    2.4486    0.0000 C.ar    1  UNL1        0.1324
     23 C           5.3871    1.9278    0.0000 C.ar    1  UNL1       -0.0184
     24 C           3.5538    4.0761    0.0000 C.3     1  UNL1        0.1235
     25 C           2.6350    2.4415    0.0000 C.2     1  UNL1       -0.0478
     26 C           2.6183    3.5264    0.0000 C.2     1  UNL1       -0.0408
     27 C           3.0504    4.9402    0.0000 C.3     1  UNL1       -0.0215
     28 C           4.0504    4.9440    0.0000 C.3     1  UNL1       -0.0215
     29 C           2.4618   -4.9440    0.0000 C.3     1  UNL1        0.0789
     30 C           6.3759   -4.1192    0.0000 C.3     1  UNL1        0.0790
     31 H           4.2901   -1.6212    0.0000 H       1  UNL1        0.0454
     32 H           1.9600   -0.2759    0.0000 H       1  UNL1        0.0765
     33 H           1.6346   -0.7869    0.0000 H       1  UNL1        0.0597
     34 H           1.4635   -1.5985    0.0000 H       1  UNL1        0.0597
     35 H           2.4765   -3.1708    0.0000 H       1  UNL1        0.0643
     36 H           5.6469   -2.5027    0.0000 H       1  UNL1        0.0691
     37 H           5.9124    0.5700    0.0000 H       1  UNL1        0.0627
     38 H           5.9252    2.2357    0.0000 H       1  UNL1        0.0654
     39 H           2.1042    2.1212    0.0000 H       1  UNL1        0.0624
     40 H           2.0778    3.8301    0.0000 H       1  UNL1        0.0611
     41 H           3.5862    5.2522    0.0000 H       1  UNL1        0.0271
     42 H           2.7384    5.4759    0.0000 H       1  UNL1        0.0271
     43 H           2.5147    4.6281    0.0000 H       1  UNL1        0.0271
     44 H           4.5885    4.6361    0.0000 H       1  UNL1        0.0271
     45 H           4.3583    5.4822    0.0000 H       1  UNL1        0.0271
     46 H           3.5123    5.2520    0.0000 H       1  UNL1        0.0271
     47 H           2.3340   -4.3374    0.0000 H       1  UNL1        0.0660
     48 H           1.8552   -5.0719    0.0000 H       1  UNL1        0.0660
     49 H           2.5897   -5.5507    0.0000 H       1  UNL1        0.0660
     50 H           6.5037   -4.7258    0.0000 H       1  UNL1        0.0660
     51 H           6.9826   -3.9913    0.0000 H       1  UNL1        0.0660
     52 H           6.2480   -3.5125    0.0000 H       1  UNL1        0.0660
@<TRIPOS>BOND
     1     9     1    1
     2     1    11    1
     3     2    10    1
     4     2    16    1
     5     3    12    2
     6     4    22    1
     7     4    24    1
     8     5    14    2
     9     6    18    1
    10     6    29    1
    11     7    21    1
    12     7    30    1
    13     8     9    1
    14     8    10    1
    15     8    12    1
    16     8    31    1
    17     9    13    1
    18     9    14    1
    19    10    11    1
    20    10    32    1
    21    11    33    1
    22    11    34    1
    23    12    15    1
    24    13    18    2
    25    13    35    1
    26    14    19    1
    27    15    16   ar
    28    15    20   ar
    29    16    17   ar
    30    17    22   ar
    31    17    25    1
    32    18    21    1
    33    19    21    2
    34    19    36    1
    35    20    23   ar
    36    20    37    1
    37    22    23   ar
    38    23    38    1
    39    24    26    1
    40    24    27    1
    41    24    28    1
    42    25    26    2
    43    25    39    1
    44    26    40    1
    45    27    41    1
    46    27    42    1
    47    27    43    1
    48    28    44    1
    49    28    45    1
    50    28    46    1
    51    29    47    1
    52    29    48    1
    53    29    49    1
    54    30    50    1
    55    30    51    1
    56    30    52    1
