@<TRIPOS>MOLECULE
IMPHY009505
 35 37 0 0 0
SMALL
GASTEIGER

@<TRIPOS>ATOM
      1 O           4.6660   -0.9254    0.0000 O.2     1  UNL1       -0.4557
      2 O           2.9176    2.1092    0.0000 O.3     1  UNL1       -0.5059
      3 O           2.9176   -1.9600    0.0000 O.3     1  UNL1       -0.5033
      4 O           4.6660    2.0746    0.0000 O.2     1  UNL1       -0.2869
      5 C           6.3981   -0.9254    0.0000 C.3     1  UNL1        0.0096
      6 C           7.2641   -0.4254    0.0000 C.3     1  UNL1       -0.0208
      7 C           5.5321   -0.4254    0.0000 C.ar    1  UNL1        0.1098
      8 C           3.8000    0.5746    0.0000 C.ar    1  UNL1        0.1088
      9 C           3.8000   -0.4254    0.0000 C.ar    1  UNL1        0.1834
     10 C           8.1301   -0.9254    0.0000 C.ar    1  UNL1       -0.0470
     11 C           5.5321    0.5746    0.0000 C.ar    1  UNL1        0.0240
     12 C           4.6660    1.0746    0.0000 C.ar    1  UNL1        0.1964
     13 C           2.9061    1.1093    0.0000 C.ar    1  UNL1        0.1314
     14 C           2.9061   -0.9601    0.0000 C.ar    1  UNL1        0.1600
     15 C           8.1301   -1.9254    0.0000 C.ar    1  UNL1       -0.0586
     16 C           8.9962   -0.4254    0.0000 C.ar    1  UNL1       -0.0586
     17 C           2.0000    0.5954    0.0000 C.ar    1  UNL1       -0.0158
     18 C           2.0000   -0.4462    0.0000 C.ar    1  UNL1       -0.0130
     19 C           8.9962   -2.4254    0.0000 C.ar    1  UNL1       -0.0615
     20 C           9.8622   -0.9254    0.0000 C.ar    1  UNL1       -0.0615
     21 C           9.8622   -1.9254    0.0000 C.ar    1  UNL1       -0.0617
     22 H           5.9996   -1.4003    0.0000 H       1  UNL1        0.0347
     23 H           6.7966   -1.4003    0.0000 H       1  UNL1        0.0347
     24 H           7.6626    0.0496    0.0000 H       1  UNL1        0.0317
     25 H           6.8656    0.0496    0.0000 H       1  UNL1        0.0317
     26 H           6.0690    0.8846    0.0000 H       1  UNL1        0.0689
     27 H           7.5932   -2.2354    0.0000 H       1  UNL1        0.0620
     28 H           8.9962    0.1946    0.0000 H       1  UNL1        0.0620
     29 H           1.4643    0.9075    0.0000 H       1  UNL1        0.0655
     30 H           1.4643   -0.7583    0.0000 H       1  UNL1        0.0656
     31 H           8.9962   -3.0454    0.0000 H       1  UNL1        0.0618
     32 H          10.3991   -0.6154    0.0000 H       1  UNL1        0.0618
     33 H          10.3991   -2.2354    0.0000 H       1  UNL1        0.0618
     34 H           2.3843    2.4254    0.0000 H       1  UNL1        0.2922
     35 H           2.3843   -2.2762    0.0000 H       1  UNL1        0.2923
@<TRIPOS>BOND
     1     1     7   ar
     2     1     9   ar
     3     2    13    1
     4     2    34    1
     5     3    14    1
     6     3    35    1
     7     4    12    2
     8     5     6    1
     9     5     7    1
    10     5    22    1
    11     5    23    1
    12     6    10    1
    13     6    24    1
    14     6    25    1
    15     7    11   ar
    16     8     9   ar
    17     8    12   ar
    18     8    13   ar
    19     9    14   ar
    20    10    15   ar
    21    10    16   ar
    22    11    12   ar
    23    11    26    1
    24    13    17   ar
    25    14    18   ar
    26    15    19   ar
    27    15    27    1
    28    16    20   ar
    29    16    28    1
    30    17    18   ar
    31    17    29    1
    32    18    30    1
    33    19    21   ar
    34    19    31    1
    35    20    21   ar
    36    20    32    1
    37    21    33    1
