@<TRIPOS>MOLECULE
IMPHY009391
 30 32 0 0 0
SMALL
GASTEIGER

@<TRIPOS>ATOM
      1 O           6.0682    1.8246    0.0000 O.2     1  UNL1       -0.2865
      2 O           6.0682   -2.1754    0.0000 O.2     1  UNL1       -0.2866
      3 O           7.8167    1.8592    0.0000 O.3     1  UNL1       -0.5059
      4 O           2.5381   -1.1995    0.0000 O.3     1  UNL1       -0.5067
      5 O           9.5984   -1.1995    0.0000 O.3     1  UNL1       -0.5066
      6 C           5.2022    0.3246    0.0000 C.ar    1  UNL1        0.0363
      7 C           5.2022   -0.6754    0.0000 C.ar    1  UNL1        0.0368
      8 C           6.9343    0.3246    0.0000 C.ar    1  UNL1        0.0746
      9 C           6.9343   -0.6754    0.0000 C.ar    1  UNL1        0.0400
     10 C           6.0682    0.8246    0.0000 C.2     1  UNL1        0.1983
     11 C           4.3083    0.8593    0.0000 C.ar    1  UNL1       -0.0355
     12 C           6.0682   -1.1754    0.0000 C.2     1  UNL1        0.1949
     13 C           4.3083   -1.2100    0.0000 C.ar    1  UNL1       -0.0087
     14 C           7.8282    0.8593    0.0000 C.ar    1  UNL1        0.1318
     15 C           7.8282   -1.2100    0.0000 C.ar    1  UNL1       -0.0084
     16 C           3.4022    0.3454    0.0000 C.ar    1  UNL1       -0.0166
     17 C           3.4022   -0.6962    0.0000 C.ar    1  UNL1        0.1178
     18 C           4.3198    1.8592    0.0000 C.3     1  UNL1       -0.0389
     19 C           8.7343   -0.6962    0.0000 C.ar    1  UNL1        0.1210
     20 C           8.7343    0.3454    0.0000 C.ar    1  UNL1        0.0221
     21 H           4.3154   -1.8300    0.0000 H       1  UNL1        0.0661
     22 H           7.8210   -1.8300    0.0000 H       1  UNL1        0.0661
     23 H           2.8665    0.6575    0.0000 H       1  UNL1        0.0657
     24 H           4.9398    1.8520    0.0000 H       1  UNL1        0.0278
     25 H           4.3270    2.4792    0.0000 H       1  UNL1        0.0278
     26 H           3.6999    1.8664    0.0000 H       1  UNL1        0.0278
     27 H           9.2700    0.6575    0.0000 H       1  UNL1        0.0691
     28 H           8.3500    2.1754    0.0000 H       1  UNL1        0.2922
     29 H           2.0000   -0.8916    0.0000 H       1  UNL1        0.2921
     30 H          10.1365   -0.8916    0.0000 H       1  UNL1        0.2921
@<TRIPOS>BOND
     1     1    10    2
     2     2    12    2
     3     3    14    1
     4     3    28    1
     5     4    17    1
     6     4    29    1
     7     5    19    1
     8     5    30    1
     9     6     7   ar
    10     6    10    1
    11     6    11   ar
    12     7    12    1
    13     7    13   ar
    14     8     9   ar
    15     8    10    1
    16     8    14   ar
    17     9    12    1
    18     9    15   ar
    19    11    16   ar
    20    11    18    1
    21    13    17   ar
    22    13    21    1
    23    14    20   ar
    24    15    19   ar
    25    15    22    1
    26    16    17   ar
    27    16    23    1
    28    18    24    1
    29    18    25    1
    30    18    26    1
    31    19    20   ar
    32    20    27    1
