@<TRIPOS>MOLECULE
IMPHY002460
 76 80 0 0 0
SMALL
GASTEIGER

@<TRIPOS>ATOM
      1 O           7.7942   -3.1241    0.0000 O.2     1  UNL1       -0.2751
      2 O           7.0326   -0.0316    0.0000 O.2     1  UNL1       -0.2705
      3 O          13.0564   -2.1483    0.0000 O.3     1  UNL1       -0.5033
      4 O          13.0564   -0.1000    0.0000 O.3     1  UNL1       -0.5033
      5 O           7.7942   -5.1241    0.0000 O.3     1  UNL1       -0.5033
      6 O           9.5262   -6.1241    0.0000 O.3     1  UNL1       -0.5033
      7 O           2.6106   -5.6070    0.0000 O.3     1  UNL1       -0.5068
      8 O           5.4875    5.8515    0.0000 O.3     1  UNL1       -0.5068
      9 N           6.8094   -1.9505    0.0000 N.am    1  UNL1       -0.3145
     10 N           8.3594    1.0816    0.0000 N.am    1  UNL1       -0.3113
     11 C           9.5262   -2.1241    0.0000 C.3     1  UNL1        0.0253
     12 C           8.6602   -1.6241    0.0000 C.3     1  UNL1        0.0762
     13 C          10.3923   -1.6241    0.0000 C.ar    1  UNL1       -0.0281
     14 C           8.6602   -0.6241    0.0000 C.2     1  UNL1        0.0276
     15 C           9.5262   -3.1241    0.0000 C.ar    1  UNL1       -0.0352
     16 C          10.3923   -0.6241    0.0000 C.ar    1  UNL1       -0.0171
     17 C           9.5262   -0.1241    0.0000 C.2     1  UNL1       -0.0453
     18 C           7.7942   -2.1241    0.0000 C.2     1  UNL1        0.2215
     19 C          11.2862   -2.1588    0.0000 C.ar    1  UNL1       -0.0122
     20 C           8.0174    0.1419    0.0000 C.2     1  UNL1        0.2409
     21 C          11.2862   -0.0895    0.0000 C.ar    1  UNL1       -0.0091
     22 C           8.6602   -3.6241    0.0000 C.ar    1  UNL1       -0.0127
     23 C          10.3923   -3.6241    0.0000 C.ar    1  UNL1       -0.0543
     24 C          12.1923   -1.6450    0.0000 C.ar    1  UNL1        0.1585
     25 C          12.1923   -0.6033    0.0000 C.ar    1  UNL1        0.1588
     26 C           6.1666   -2.7164    0.0000 C.3     1  UNL1        0.0156
     27 C           8.6602   -4.6241    0.0000 C.ar    1  UNL1        0.1585
     28 C          10.3923   -4.6241    0.0000 C.ar    1  UNL1       -0.0163
     29 C           9.5262   -5.1241    0.0000 C.ar    1  UNL1        0.1582
     30 C           7.7166    1.8476    0.0000 C.3     1  UNL1        0.0159
     31 C           5.1818   -2.5429    0.0000 C.3     1  UNL1       -0.0121
     32 C           8.0587    2.7873    0.0000 C.3     1  UNL1       -0.0120
     33 C           4.5390   -3.3088    0.0000 C.ar    1  UNL1       -0.0457
     34 C           7.4159    3.5534    0.0000 C.ar    1  UNL1       -0.0457
     35 C           3.5542   -3.1353    0.0000 C.ar    1  UNL1       -0.0551
     36 C           4.8810   -4.2486    0.0000 C.ar    1  UNL1       -0.0551
     37 C           7.7579    4.4931    0.0000 C.ar    1  UNL1       -0.0551
     38 C           6.4311    3.3797    0.0000 C.ar    1  UNL1       -0.0551
     39 C           2.9114   -3.9012    0.0000 C.ar    1  UNL1       -0.0199
     40 C           4.2382   -5.0146    0.0000 C.ar    1  UNL1       -0.0199
     41 C           3.2534   -4.8409    0.0000 C.ar    1  UNL1        0.1169
     42 C           7.1151    5.2591    0.0000 C.ar    1  UNL1       -0.0199
     43 C           5.7883    4.1458    0.0000 C.ar    1  UNL1       -0.0199
     44 C           6.1303    5.0855    0.0000 C.ar    1  UNL1        0.1169
     45 H           8.9893   -2.4341    0.0000 H       1  UNL1        0.0408
     46 H           8.1233   -1.3141    0.0000 H       1  UNL1        0.0454
     47 H           9.5262    0.4959    0.0000 H       1  UNL1        0.0628
     48 H          11.2790   -2.7788    0.0000 H       1  UNL1        0.0658
     49 H          11.2790    0.5305    0.0000 H       1  UNL1        0.0661
     50 H           8.1233   -3.3141    0.0000 H       1  UNL1        0.0658
     51 H          10.9292   -3.3141    0.0000 H       1  UNL1        0.0622
     52 H           6.5973   -1.3679    0.0000 H       1  UNL1        0.1487
     53 H           5.9545   -3.2990    0.0000 H       1  UNL1        0.0465
     54 H           6.7035   -3.0264    0.0000 H       1  UNL1        0.0465
     55 H           8.9700    1.1893    0.0000 H       1  UNL1        0.1490
     56 H          10.9292   -4.9341    0.0000 H       1  UNL1        0.0655
     57 H           7.1797    2.1576    0.0000 H       1  UNL1        0.0465
     58 H           7.3181    1.3727    0.0000 H       1  UNL1        0.0465
     59 H           5.3938   -1.9603    0.0000 H       1  UNL1        0.0328
     60 H           4.6448   -2.2329    0.0000 H       1  UNL1        0.0328
     61 H           8.5956    2.4773    0.0000 H       1  UNL1        0.0328
     62 H           8.4572    3.2623    0.0000 H       1  UNL1        0.0328
     63 H          13.5945   -1.8404    0.0000 H       1  UNL1        0.2923
     64 H          13.0540    0.5200    0.0000 H       1  UNL1        0.2923
     65 H           7.7942   -5.7441    0.0000 H       1  UNL1        0.2923
     66 H          10.0632   -6.4341    0.0000 H       1  UNL1        0.2923
     67 H           3.3421   -2.5527    0.0000 H       1  UNL1        0.0621
     68 H           5.4915   -4.3562    0.0000 H       1  UNL1        0.0621
     69 H           8.3685    4.6007    0.0000 H       1  UNL1        0.0621
     70 H           6.2190    2.7971    0.0000 H       1  UNL1        0.0621
     71 H           2.3008   -3.7935    0.0000 H       1  UNL1        0.0654
     72 H           4.4502   -5.5972    0.0000 H       1  UNL1        0.0654
     73 H           7.3272    5.8417    0.0000 H       1  UNL1        0.0654
     74 H           5.1777    4.0381    0.0000 H       1  UNL1        0.0654
     75 H           2.0000   -5.4993    0.0000 H       1  UNL1        0.2921
     76 H           5.6996    6.4341    0.0000 H       1  UNL1        0.2921
@<TRIPOS>BOND
     1     1    18    2
     2     2    20    2
     3     3    24    1
     4     3    63    1
     5     4    25    1
     6     4    64    1
     7     5    27    1
     8     5    65    1
     9     6    29    1
    10     6    66    1
    11     7    41    1
    12     7    75    1
    13     8    44    1
    14     8    76    1
    15     9    18   am
    16     9    26    1
    17     9    52    1
    18    10    20   am
    19    10    30    1
    20    10    55    1
    21    11    12    1
    22    11    13    1
    23    11    15    1
    24    11    45    1
    25    12    14    1
    26    12    18    1
    27    12    46    1
    28    13    16   ar
    29    13    19   ar
    30    14    17    2
    31    14    20    1
    32    15    22   ar
    33    15    23   ar
    34    16    17    1
    35    16    21   ar
    36    17    47    1
    37    19    24   ar
    38    19    48    1
    39    21    25   ar
    40    21    49    1
    41    22    27   ar
    42    22    50    1
    43    23    28   ar
    44    23    51    1
    45    24    25   ar
    46    26    31    1
    47    26    53    1
    48    26    54    1
    49    27    29   ar
    50    28    29   ar
    51    28    56    1
    52    30    32    1
    53    30    57    1
    54    30    58    1
    55    31    33    1
    56    31    59    1
    57    31    60    1
    58    32    34    1
    59    32    61    1
    60    32    62    1
    61    33    35   ar
    62    33    36   ar
    63    34    37   ar
    64    34    38   ar
    65    35    39   ar
    66    35    67    1
    67    36    40   ar
    68    36    68    1
    69    37    42   ar
    70    37    69    1
    71    38    43   ar
    72    38    70    1
    73    39    41   ar
    74    39    71    1
    75    40    41   ar
    76    40    72    1
    77    42    44   ar
    78    42    73    1
    79    43    44   ar
    80    43    74    1
