@<TRIPOS>MOLECULE
IMPHY003600
 36 38 0 0 0
SMALL
GASTEIGER

@<TRIPOS>ATOM
      1 O           2.9176   -1.8765    0.0000 O.3     1  UNL1       -0.3909
      2 O           6.4783   -0.6466    0.0000 O.2     1  UNL1       -0.4668
      3 O           4.6660    2.1581    0.0000 O.2     1  UNL1       -0.2868
      4 C           3.8000   -0.3419    0.0000 C.3     1  UNL1        0.0293
      5 C           2.9061   -0.8766    0.0000 C.3     1  UNL1        0.0654
      6 C           3.8000    0.6581    0.0000 C.2     1  UNL1        0.0077
      7 C           4.6660   -0.8419    0.0000 C.3     1  UNL1        0.0181
      8 C           2.0000   -0.3627    0.0000 C.3     1  UNL1       -0.0223
      9 C           2.0000    0.6789    0.0000 C.3     1  UNL1       -0.0290
     10 C           2.9061    1.1928    0.0000 C.2     1  UNL1       -0.0651
     11 C           3.8000   -1.3419    0.0000 C.3     1  UNL1       -0.0526
     12 C           5.5321   -0.3419    0.0000 C.ar    1  UNL1        0.1168
     13 C           4.6660    1.1581    0.0000 C.2     1  UNL1        0.1933
     14 C           5.5321    0.6581    0.0000 C.ar    1  UNL1        0.0657
     15 C           2.9176    2.1927    0.0000 C.3     1  UNL1       -0.0431
     16 C           6.4783    0.9628    0.0000 C.ar    1  UNL1       -0.0016
     17 C           7.0619    0.1581    0.0000 C.ar    1  UNL1        0.0957
     18 C           6.7889    1.9134    0.0000 C.3     1  UNL1       -0.0360
     19 H           2.3721   -1.1917    0.0000 H       1  UNL1        0.0602
     20 H           4.2675   -1.3168    0.0000 H       1  UNL1        0.0353
     21 H           5.0646   -1.3168    0.0000 H       1  UNL1        0.0353
     22 H           1.3891   -0.2566    0.0000 H       1  UNL1        0.0293
     23 H           1.7909   -0.9464    0.0000 H       1  UNL1        0.0293
     24 H           1.7909    1.2626    0.0000 H       1  UNL1        0.0311
     25 H           1.3891    0.5728    0.0000 H       1  UNL1        0.0311
     26 H           3.1800   -1.3419    0.0000 H       1  UNL1        0.0239
     27 H           3.8000   -1.9619    0.0000 H       1  UNL1        0.0239
     28 H           4.4200   -1.3419    0.0000 H       1  UNL1        0.0239
     29 H           3.5376    2.1855    0.0000 H       1  UNL1        0.0275
     30 H           2.9248    2.8126    0.0000 H       1  UNL1        0.0275
     31 H           2.2977    2.1999    0.0000 H       1  UNL1        0.0275
     32 H           2.3843   -2.1927    0.0000 H       1  UNL1        0.2098
     33 H           7.6819    0.1581    0.0000 H       1  UNL1        0.1032
     34 H           7.3783    1.7207    0.0000 H       1  UNL1        0.0279
     35 H           6.9816    2.5027    0.0000 H       1  UNL1        0.0279
     36 H           6.1996    2.1060    0.0000 H       1  UNL1        0.0279
@<TRIPOS>BOND
     1     5     1    1
     2     1    32    1
     3     2    12   ar
     4     2    17   ar
     5     3    13    2
     6     4     5    1
     7     4     6    1
     8     4     7    1
     9     4    11    1
    10     5     8    1
    11     5    19    1
    12     6    10    2
    13     6    13    1
    14     7    12    1
    15     7    20    1
    16     7    21    1
    17     8     9    1
    18     8    22    1
    19     8    23    1
    20     9    10    1
    21     9    24    1
    22     9    25    1
    23    10    15    1
    24    11    26    1
    25    11    27    1
    26    11    28    1
    27    12    14   ar
    28    13    14    1
    29    14    16   ar
    30    15    29    1
    31    15    30    1
    32    15    31    1
    33    16    17   ar
    34    16    18    1
    35    17    33    1
    36    18    34    1
    37    18    35    1
    38    18    36    1
