@<TRIPOS>MOLECULE
IMPHY008832
 16 17 0 0 0
SMALL
GASTEIGER

@<TRIPOS>ATOM
      1 O           8.1282    1.5241    0.0000 O.2     1  UNL1       -0.2866
      2 C           5.4641    0.0000    0.0000 C.3     1  UNL1        0.0345
      3 C           4.5981   -0.5000    0.0000 C.3     1  UNL1        0.0121
      4 C           3.7321    0.0000    0.0000 C.3     1  UNL1        0.0226
      5 C           2.8660   -0.5000    0.0000 C.3     1  UNL1        0.0040
      6 C           5.4641    1.0000    0.0000 C.2     1  UNL1       -0.0165
      7 C           6.3580   -0.5347    0.0000 C.2     1  UNL1       -0.0376
      8 C           3.7321    1.0000    0.0000 C.2     1  UNL1       -0.0268
      9 C           5.4641   -1.0000    0.0000 C.3     1  UNL1        0.0084
     10 C           4.5981    1.5000    0.0000 C.2     1  UNL1       -0.0085
     11 C           6.3580    1.5346    0.0000 C.2     1  UNL1        0.0380
     12 C           2.8660   -1.5000    0.0000 C.3     1  UNL1        0.0003
     13 C           2.0000    0.0000    0.0000 C.3     1  UNL1        0.0003
     14 C           7.2641   -0.0208    0.0000 C.2     1  UNL1        0.0338
     15 C           6.3465   -1.5346    0.0000 C.3     1  UNL1        0.0268
     16 C           7.2641    1.0208    0.0000 C.2     1  UNL1        0.1948
@<TRIPOS>BOND
     1     1    16    2
     2     2     3    1
     3     2     6    1
     4     2     7    1
     5     2     9    1
     6     3     4    1
     7     4     5    1
     8     4     8    1
     9     5    12    1
    10     5    13    1
    11     6    10    1
    12     6    11    2
    13     7    14    2
    14     7    15    1
    15     8    10    2
    16    11    16    1
    17    14    16    1
