@<TRIPOS>MOLECULE
IMPHY006048
 17 17 0 0 0
SMALL
GASTEIGER

@<TRIPOS>ATOM
      1 O           2.5369    0.6550    0.0000 O.3     1  UNL1       -0.5049
      2 N           4.2690    1.6550    0.0000 N.pl3   1  UNL1       -0.3551
      3 N           6.0010   -1.3450    0.0000 N.pl3   1  UNL1       -0.3579
      4 C           4.2690    0.6550    0.0000 C.ar    1  UNL1        0.0683
      5 C           5.1350   -0.8450    0.0000 C.ar    1  UNL1        0.0265
      6 C           5.1350    0.1550    0.0000 C.ar    1  UNL1       -0.0168
      7 C           3.4030    0.1550    0.0000 C.ar    1  UNL1        0.1375
      8 C           4.2690   -1.3450    0.0000 C.ar    1  UNL1       -0.0375
      9 C           3.4030   -0.8450    0.0000 C.ar    1  UNL1       -0.0166
     10 H           5.6720    0.4650    0.0000 H       1  UNL1        0.0655
     11 H           4.2690   -1.9650    0.0000 H       1  UNL1        0.0637
     12 H           2.8660   -1.1550    0.0000 H       1  UNL1        0.0655
     13 H           4.8059    1.9650    0.0000 H       1  UNL1        0.1424
     14 H           3.7320    1.9650    0.0000 H       1  UNL1        0.1424
     15 H           6.0010   -1.9650    0.0000 H       1  UNL1        0.1423
     16 H           6.5380   -1.0350    0.0000 H       1  UNL1        0.1423
     17 H           2.0000    0.3450    0.0000 H       1  UNL1        0.2922
@<TRIPOS>BOND
     1     1     7    1
     2     1    17    1
     3     2     4    1
     4     2    13    1
     5     2    14    1
     6     3     5    1
     7     3    15    1
     8     3    16    1
     9     4     6   ar
    10     4     7   ar
    11     5     6   ar
    12     5     8   ar
    13     6    10    1
    14     7     9   ar
    15     8     9   ar
    16     8    11    1
    17     9    12    1
