@<TRIPOS>MOLECULE
IMPHY009846
 20 19 0 0 0
SMALL
GASTEIGER

@<TRIPOS>ATOM
      1 O           2.8660    0.7500    0.0000 O.3     1  UNL1       -0.4679
      2 O           3.7320   -0.7500    0.0000 O.2     1  UNL1       -0.2509
      3 C           5.4641    0.2500    0.0000 C.3     1  UNL1       -0.0367
      4 C           4.5981    0.7500    0.0000 C.3     1  UNL1        0.0472
      5 C           6.3301    0.7500    0.0000 C.3     1  UNL1       -0.0622
      6 C           5.4641   -0.7500    0.0000 C.3     1  UNL1       -0.0622
      7 C           3.7320    0.2500    0.0000 C.2     1  UNL1        0.3071
      8 C           2.0000    0.2500    0.0000 C.3     1  UNL1        0.0817
      9 H           5.4641    0.8700    0.0000 H       1  UNL1        0.0301
     10 H           4.9966    1.2250    0.0000 H       1  UNL1        0.0380
     11 H           4.1996    1.2250    0.0000 H       1  UNL1        0.0380
     12 H           6.6401    0.2131    0.0000 H       1  UNL1        0.0232
     13 H           6.8671    1.0600    0.0000 H       1  UNL1        0.0232
     14 H           6.0201    1.2869    0.0000 H       1  UNL1        0.0232
     15 H           4.8441   -0.7500    0.0000 H       1  UNL1        0.0232
     16 H           5.4641   -1.3700    0.0000 H       1  UNL1        0.0232
     17 H           6.0841   -0.7500    0.0000 H       1  UNL1        0.0232
     18 H           1.6900    0.7869    0.0000 H       1  UNL1        0.0661
     19 H           1.4631   -0.0600    0.0000 H       1  UNL1        0.0661
     20 H           2.3100   -0.2869    0.0000 H       1  UNL1        0.0661
@<TRIPOS>BOND
     1     1     7    1
     2     1     8    1
     3     2     7    2
     4     3     4    1
     5     3     5    1
     6     3     6    1
     7     3     9    1
     8     4     7    1
     9     4    10    1
    10     4    11    1
    11     5    12    1
    12     5    13    1
    13     5    14    1
    14     6    15    1
    15     6    16    1
    16     6    17    1
    17     8    18    1
    18     8    19    1
    19     8    20    1
