@<TRIPOS>MOLECULE
IMPHY011502
 62 64 0 0 0
SMALL
GASTEIGER

@<TRIPOS>ATOM
      1 O           4.5981   -3.3224    0.0000 O.3     1  UNL1       -0.4947
      2 O           4.5981    0.6776    0.0000 O.3     1  UNL1       -0.4911
      3 O           2.8660   -0.3224    0.0000 O.3     1  UNL1       -0.4913
      4 O           8.3673   -0.1053    0.0000 O.3     1  UNL1       -0.4947
      5 O           5.6960    2.8719    0.0000 O.3     1  UNL1       -0.4914
      6 O           7.6530    3.2844    0.0000 O.3     1  UNL1       -0.4913
      7 C           6.9939   -1.3224    0.0000 C.3     1  UNL1       -0.0259
      8 C           6.4103   -2.1272    0.0000 C.3     1  UNL1       -0.0088
      9 C           6.4103   -0.5177    0.0000 C.3     1  UNL1        0.0199
     10 C           5.4641   -1.8224    0.0000 C.ar    1  UNL1        0.0051
     11 C           5.4641   -0.8224    0.0000 C.ar    1  UNL1        0.0126
     12 C           6.7210   -3.0777    0.0000 C.3     1  UNL1       -0.0487
     13 C           7.9939   -1.3224    0.0000 C.3     1  UNL1       -0.0610
     14 C           6.7210    0.4328    0.0000 C.ar    1  UNL1        0.0057
     15 C           4.5981   -2.3224    0.0000 C.ar    1  UNL1        0.1275
     16 C           4.5981   -0.3224    0.0000 C.ar    1  UNL1        0.1657
     17 C           7.6995   -3.2839    0.0000 C.3     1  UNL1       -0.0647
     18 C           3.7320   -0.8224    0.0000 C.ar    1  UNL1        0.1653
     19 C           3.7320   -1.8224    0.0000 C.ar    1  UNL1        0.0257
     20 C           7.6995    0.6390    0.0000 C.ar    1  UNL1        0.1275
     21 C           6.0531    1.1771    0.0000 C.ar    1  UNL1       -0.0091
     22 C           6.3638    2.1276    0.0000 C.ar    1  UNL1        0.1620
     23 C           8.0102    1.5895    0.0000 C.ar    1  UNL1        0.0257
     24 C           7.3423    2.3338    0.0000 C.ar    1  UNL1        0.1650
     25 C           3.7320   -3.8224    0.0000 C.3     1  UNL1        0.0788
     26 C           3.7320    1.1776    0.0000 C.3     1  UNL1        0.0790
     27 C           2.0000   -0.8224    0.0000 C.3     1  UNL1        0.0790
     28 C           9.3458    0.1009    0.0000 C.3     1  UNL1        0.0788
     29 C           6.0066    3.8224    0.0000 C.3     1  UNL1        0.0790
     30 C           8.6315    3.4906    0.0000 C.3     1  UNL1        0.0790
     31 H           7.2756   -0.7701    0.0000 H       1  UNL1        0.0313
     32 H           5.9729   -2.5665    0.0000 H       1  UNL1        0.0353
     33 H           7.0228   -0.4215    0.0000 H       1  UNL1        0.0402
     34 H           6.1072   -3.1650    0.0000 H       1  UNL1        0.0269
     35 H           6.7004   -3.6974    0.0000 H       1  UNL1        0.0269
     36 H           7.9939   -1.9424    0.0000 H       1  UNL1        0.0233
     37 H           8.6139   -1.3224    0.0000 H       1  UNL1        0.0233
     38 H           7.9939   -0.7024    0.0000 H       1  UNL1        0.0233
     39 H           7.5716   -3.8906    0.0000 H       1  UNL1        0.0230
     40 H           8.3062   -3.4118    0.0000 H       1  UNL1        0.0230
     41 H           7.8274   -2.6772    0.0000 H       1  UNL1        0.0230
     42 H           3.1951   -2.1324    0.0000 H       1  UNL1        0.0692
     43 H           5.4465    1.0492    0.0000 H       1  UNL1        0.0659
     44 H           8.6168    1.7174    0.0000 H       1  UNL1        0.0692
     45 H           3.4220   -3.2855    0.0000 H       1  UNL1        0.0660
     46 H           3.1951   -4.1325    0.0000 H       1  UNL1        0.0660
     47 H           4.0420   -4.3594    0.0000 H       1  UNL1        0.0660
     48 H           4.0420    1.7145    0.0000 H       1  UNL1        0.0660
     49 H           3.1951    1.4876    0.0000 H       1  UNL1        0.0660
     50 H           3.4220    0.6406    0.0000 H       1  UNL1        0.0660
     51 H           1.6900   -0.2855    0.0000 H       1  UNL1        0.0660
     52 H           1.4631   -1.1324    0.0000 H       1  UNL1        0.0660
     53 H           2.3100   -1.3594    0.0000 H       1  UNL1        0.0660
     54 H           9.4737   -0.5057    0.0000 H       1  UNL1        0.0660
     55 H           9.9525    0.2288    0.0000 H       1  UNL1        0.0660
     56 H           9.2180    0.7076    0.0000 H       1  UNL1        0.0660
     57 H           6.5959    3.6298    0.0000 H       1  UNL1        0.0660
     58 H           6.1992    4.4118    0.0000 H       1  UNL1        0.0660
     59 H           5.4173    4.0151    0.0000 H       1  UNL1        0.0660
     60 H           8.7593    2.8839    0.0000 H       1  UNL1        0.0660
     61 H           9.2381    3.6184    0.0000 H       1  UNL1        0.0660
     62 H           8.5036    4.0973    0.0000 H       1  UNL1        0.0660
@<TRIPOS>BOND
     1     1    15    1
     2     1    25    1
     3     2    16    1
     4     2    26    1
     5     3    18    1
     6     3    27    1
     7     4    20    1
     8     4    28    1
     9     5    22    1
    10     5    29    1
    11     6    24    1
    12     6    30    1
    13     7     8    1
    14     7     9    1
    15     7    13    1
    16     7    31    1
    17     8    10    1
    18     8    12    1
    19     8    32    1
    20     9    11    1
    21     9    14    1
    22     9    33    1
    23    10    11   ar
    24    10    15   ar
    25    11    16   ar
    26    12    17    1
    27    12    34    1
    28    12    35    1
    29    13    36    1
    30    13    37    1
    31    13    38    1
    32    14    20   ar
    33    14    21   ar
    34    15    19   ar
    35    16    18   ar
    36    17    39    1
    37    17    40    1
    38    17    41    1
    39    18    19   ar
    40    19    42    1
    41    20    23   ar
    42    21    22   ar
    43    21    43    1
    44    22    24   ar
    45    23    24   ar
    46    23    44    1
    47    25    45    1
    48    25    46    1
    49    25    47    1
    50    26    48    1
    51    26    49    1
    52    26    50    1
    53    27    51    1
    54    27    52    1
    55    27    53    1
    56    28    54    1
    57    28    55    1
    58    28    56    1
    59    29    57    1
    60    29    58    1
    61    29    59    1
    62    30    60    1
    63    30    61    1
    64    30    62    1
