@<TRIPOS>MOLECULE
IMPHY009273
 93 97 0 0 0
SMALL
GASTEIGER

@<TRIPOS>ATOM
      1 O           9.2888   -1.5119    0.0000 O.3     1  UNL1       -0.3770
      2 O           5.8084    0.5227    0.0000 O.3     1  UNL1       -0.4546
      3 O           9.2888   -2.5119    0.0000 O.3     1  UNL1       -0.4582
      4 O           6.6690    1.0196    0.0000 O.3     1  UNL1       -0.4574
      5 O           4.0267   -2.5361    0.0000 O.3     1  UNL1       -0.4582
      6 O           3.9053   -1.1609    0.0000 O.3     1  UNL1       -0.3844
      7 O          10.3327   -0.5166    0.0000 O.2     1  UNL1       -0.2933
      8 O           4.9598    2.0326    0.0000 O.2     1  UNL1       -0.2449
      9 O           8.4228   -4.0119    0.0000 O.2     1  UNL1       -0.2512
     10 O           4.8985   -4.0327    0.0000 O.2     1  UNL1       -0.2512
     11 O           5.7857    2.5094    0.0000 O.2     1  UNL1       -0.2450
     12 C           6.6908   -1.0119    0.0000 C.3     1  UNL1        0.0204
     13 C           6.6908   -2.0119    0.0000 C.3     1  UNL1       -0.0197
     14 C           7.5568   -0.5119    0.0000 C.3     1  UNL1        0.0446
     15 C           5.7968   -2.5466    0.0000 C.3     1  UNL1        0.0083
     16 C           8.4228   -1.0119    0.0000 C.3     1  UNL1        0.1676
     17 C           5.7968   -0.4772    0.0000 C.3     1  UNL1        0.1386
     18 C           7.5568   -2.5119    0.0000 C.3     1  UNL1       -0.0084
     19 C           8.4228   -2.0119    0.0000 C.3     1  UNL1        0.1392
     20 C           7.5407    0.5296    0.0000 C.3     1  UNL1        0.1112
     21 C           4.8908   -2.0327    0.0000 C.3     1  UNL1        0.1376
     22 C           4.8908   -0.9911    0.0000 C.3     1  UNL1        0.1298
     23 C           6.6908   -0.0119    0.0000 C.3     1  UNL1       -0.0553
     24 C           9.3328   -0.5051    0.0000 C.2     1  UNL1        0.1783
     25 C           8.4388    1.0574    0.0000 C.3     1  UNL1        0.0004
     26 C           9.3408    0.5365    0.0000 C.3     1  UNL1        0.0503
     27 C           5.3069   -3.4183    0.0000 C.3     1  UNL1       -0.0561
     28 C           6.3068   -3.4068    0.0000 C.3     1  UNL1       -0.0561
     29 C          10.3408    0.5327    0.0000 C.3     1  UNL1       -0.0491
     30 C           9.8442    1.4006    0.0000 C.2     1  UNL1       -0.0780
     31 C           4.9482    1.0327    0.0000 C.2     1  UNL1        0.3395
     32 C           9.2888   -3.5119    0.0000 C.2     1  UNL1        0.3043
     33 C           4.0305   -3.5360    0.0000 C.2     1  UNL1        0.3043
     34 C           6.6574    2.0195    0.0000 C.2     1  UNL1        0.3395
     35 C          10.8442    1.3968    0.0000 C.2     1  UNL1       -0.1017
     36 C           3.9655    1.2177    0.0000 C.ar    1  UNL1        0.0590
     37 C          10.1549   -4.0119    0.0000 C.3     1  UNL1        0.0332
     38 C           3.1664   -4.0394    0.0000 C.3     1  UNL1        0.0332
     39 C           7.5176    2.5295    0.0000 C.ar    1  UNL1        0.0590
     40 C           3.3139    0.4591    0.0000 C.ar    1  UNL1       -0.0478
     41 C           3.6343    2.1613    0.0000 C.ar    1  UNL1       -0.0478
     42 C           8.3894    2.0395    0.0000 C.ar    1  UNL1       -0.0478
     43 C           7.5060    3.5294    0.0000 C.ar    1  UNL1       -0.0478
     44 C           2.3311    0.6441    0.0000 C.ar    1  UNL1       -0.0610
     45 C           2.6516    2.3464    0.0000 C.ar    1  UNL1       -0.0610
     46 C           9.2495    2.5495    0.0000 C.ar    1  UNL1       -0.0610
     47 C           8.3662    4.0394    0.0000 C.ar    1  UNL1       -0.0610
     48 C           2.0000    1.5878    0.0000 C.ar    1  UNL1       -0.0617
     49 C           9.2380    3.5494    0.0000 C.ar    1  UNL1       -0.0617
     50 H           6.6973   -2.8619    0.0000 H       1  UNL1        0.0315
     51 H           8.2896   -0.0812    0.0000 H       1  UNL1        0.0377
     52 H           5.2629   -0.1621    0.0000 H       1  UNL1        0.0767
     53 H           7.1583   -2.9868    0.0000 H       1  UNL1        0.0305
     54 H           7.9553   -2.9868    0.0000 H       1  UNL1        0.0305
     55 H           8.4228   -2.6319    0.0000 H       1  UNL1        0.0768
     56 H           7.5348    1.1496    0.0000 H       1  UNL1        0.0738
     57 H           4.3532   -1.7238    0.0000 H       1  UNL1        0.0767
     58 H           4.6821   -0.4073    0.0000 H       1  UNL1        0.0668
     59 H           7.3108   -0.0119    0.0000 H       1  UNL1        0.0236
     60 H           6.6908    0.6081    0.0000 H       1  UNL1        0.0236
     61 H           6.0708   -0.0119    0.0000 H       1  UNL1        0.0236
     62 H           8.8361    1.5333    0.0000 H       1  UNL1        0.0313
     63 H           8.0378    1.5303    0.0000 H       1  UNL1        0.0313
     64 H           4.7664   -3.1146    0.0000 H       1  UNL1        0.0236
     65 H           5.0031   -3.9588    0.0000 H       1  UNL1        0.0236
     66 H           5.8473   -3.7221    0.0000 H       1  UNL1        0.0236
     67 H           5.7735   -3.7229    0.0000 H       1  UNL1        0.0236
     68 H           6.6230   -3.9401    0.0000 H       1  UNL1        0.0236
     69 H           6.8401   -3.0906    0.0000 H       1  UNL1        0.0236
     70 H           9.9088   -1.5119    0.0000 H       1  UNL1        0.2109
     71 H          10.3384   -0.0873    0.0000 H       1  UNL1        0.0242
     72 H          10.9608    0.5303    0.0000 H       1  UNL1        0.0242
     73 H          10.3432    1.1527    0.0000 H       1  UNL1        0.0242
     74 H           3.5086   -0.6845    0.0000 H       1  UNL1        0.2101
     75 H           9.5363    1.9388    0.0000 H       1  UNL1        0.0576
     76 H          11.1521    0.8587    0.0000 H       1  UNL1        0.0532
     77 H          11.1562    1.9325    0.0000 H       1  UNL1        0.0532
     78 H           9.8449   -4.5488    0.0000 H       1  UNL1        0.0342
     79 H          10.6918   -4.3219    0.0000 H       1  UNL1        0.0342
     80 H          10.4649   -3.4750    0.0000 H       1  UNL1        0.0342
     81 H           2.8544   -3.5036    0.0000 H       1  UNL1        0.0342
     82 H           2.6307   -4.3514    0.0000 H       1  UNL1        0.0342
     83 H           3.4785   -4.5751    0.0000 H       1  UNL1        0.0342
     84 H           3.5192   -0.1259    0.0000 H       1  UNL1        0.0626
     85 H           4.0383    2.6316    0.0000 H       1  UNL1        0.0626
     86 H           8.3965    1.4196    0.0000 H       1  UNL1        0.0626
     87 H           6.9656    3.8332    0.0000 H       1  UNL1        0.0626
     88 H           1.9271    0.1739    0.0000 H       1  UNL1        0.0618
     89 H           2.4464    2.9314    0.0000 H       1  UNL1        0.0618
     90 H           9.7900    2.2457    0.0000 H       1  UNL1        0.0618
     91 H           8.3590    4.6593    0.0000 H       1  UNL1        0.0618
     92 H           1.3907    1.7025    0.0000 H       1  UNL1        0.0618
     93 H           9.7713    3.8656    0.0000 H       1  UNL1        0.0618
@<TRIPOS>BOND
     1    16     1    1
     2     1    70    1
     3    17     2    1
     4     2    31    1
     5    19     3    1
     6     3    32    1
     7    20     4    1
     8     4    34    1
     9    21     5    1
    10     5    33    1
    11    22     6    1
    12     6    74    1
    13     7    24    2
    14     8    31    2
    15     9    32    2
    16    10    33    2
    17    11    34    2
    18    12    13    1
    19    12    14    1
    20    12    17    1
    21    12    23    1
    22    13    15    1
    23    13    18    1
    24    13    50    1
    25    14    16    1
    26    14    20    1
    27    14    51    1
    28    15    21    1
    29    15    27    1
    30    15    28    1
    31    16    19    1
    32    16    24    1
    33    17    22    1
    34    17    52    1
    35    18    19    1
    36    18    53    1
    37    18    54    1
    38    19    55    1
    39    20    25    1
    40    20    56    1
    41    21    22    1
    42    21    57    1
    43    22    58    1
    44    23    59    1
    45    23    60    1
    46    23    61    1
    47    24    26    1
    48    25    26    1
    49    25    62    1
    50    25    63    1
    51    26    29    1
    52    26    30    1
    53    27    64    1
    54    27    65    1
    55    27    66    1
    56    28    67    1
    57    28    68    1
    58    28    69    1
    59    29    71    1
    60    29    72    1
    61    29    73    1
    62    30    35    2
    63    30    75    1
    64    31    36    1
    65    32    37    1
    66    33    38    1
    67    34    39    1
    68    35    76    1
    69    35    77    1
    70    36    40   ar
    71    36    41   ar
    72    37    78    1
    73    37    79    1
    74    37    80    1
    75    38    81    1
    76    38    82    1
    77    38    83    1
    78    39    42   ar
    79    39    43   ar
    80    40    44   ar
    81    40    84    1
    82    41    45   ar
    83    41    85    1
    84    42    46   ar
    85    42    86    1
    86    43    47   ar
    87    43    87    1
    88    44    48   ar
    89    44    88    1
    90    45    48   ar
    91    45    89    1
    92    46    49   ar
    93    46    90    1
    94    47    49   ar
    95    47    91    1
    96    48    92    1
    97    49    93    1
