@<TRIPOS>MOLECULE
IMPHY012095
 16 16 0 0 0
SMALL
GASTEIGER

@<TRIPOS>ATOM
      1 C           2.8660    1.0000    0.0000 C.3     1  UNL1       -0.0493
      2 C           2.0000    0.5000    0.0000 C.3     1  UNL1       -0.0493
      3 C           3.7320    0.5000    0.0000 C.3     1  UNL1       -0.0348
      4 C           2.0000   -0.5000    0.0000 C.3     1  UNL1       -0.0348
      5 C           3.7320   -0.5000    0.0000 C.2     1  UNL1       -0.0879
      6 C           2.8660   -1.0000    0.0000 C.2     1  UNL1       -0.0879
      7 H           3.2646    1.4750    0.0000 H       1  UNL1        0.0268
      8 H           2.4675    1.4750    0.0000 H       1  UNL1        0.0268
      9 H           1.7880    1.0826    0.0000 H       1  UNL1        0.0268
     10 H           1.3894    0.3923    0.0000 H       1  UNL1        0.0268
     11 H           4.3426    0.3923    0.0000 H       1  UNL1        0.0307
     12 H           3.9441    1.0826    0.0000 H       1  UNL1        0.0307
     13 H           1.3894   -0.3923    0.0000 H       1  UNL1        0.0307
     14 H           1.7880   -1.0826    0.0000 H       1  UNL1        0.0307
     15 H           4.2690   -0.8100    0.0000 H       1  UNL1        0.0569
     16 H           2.8660   -1.6200    0.0000 H       1  UNL1        0.0569
@<TRIPOS>BOND
     1     1     2    1
     2     1     3    1
     3     1     7    1
     4     1     8    1
     5     2     4    1
     6     2     9    1
     7     2    10    1
     8     3     5    1
     9     3    11    1
    10     3    12    1
    11     4     6    1
    12     4    13    1
    13     4    14    1
    14     5     6    2
    15     5    15    1
    16     6    16    1
