@<TRIPOS>MOLECULE
IMPHY010892
 111 111 0 0 0
SMALL
GASTEIGER

@<TRIPOS>ATOM
      1 O           6.0010   -8.0950    0.0000 O.3     1  UNL1       -0.4616
      2 O           4.2690   -8.0950    0.0000 O.2     1  UNL1       -0.2456
      3 O           2.5369  -13.0950    0.0000 O.3     1  UNL1       -0.5033
      4 O           4.2690  -14.0950    0.0000 O.3     1  UNL1       -0.5033
      5 C          12.0632    3.4050    0.0000 C.3     1  UNL1       -0.0531
      6 C          12.9292    3.9050    0.0000 C.3     1  UNL1       -0.0531
      7 C          12.0632    2.4050    0.0000 C.3     1  UNL1       -0.0531
      8 C          12.9292    4.9050    0.0000 C.3     1  UNL1       -0.0531
      9 C          11.1972    1.9050    0.0000 C.3     1  UNL1       -0.0531
     10 C          13.7953    5.4050    0.0000 C.3     1  UNL1       -0.0531
     11 C          11.1972    0.9050    0.0000 C.3     1  UNL1       -0.0531
     12 C          13.7953    6.4050    0.0000 C.3     1  UNL1       -0.0531
     13 C          10.3312    0.4050    0.0000 C.3     1  UNL1       -0.0531
     14 C          14.6613    6.9050    0.0000 C.3     1  UNL1       -0.0531
     15 C          10.3312   -0.5950    0.0000 C.3     1  UNL1       -0.0531
     16 C          14.6613    7.9050    0.0000 C.3     1  UNL1       -0.0531
     17 C           9.4651   -1.0950    0.0000 C.3     1  UNL1       -0.0531
     18 C          15.5273    8.4050    0.0000 C.3     1  UNL1       -0.0531
     19 C           9.4651   -2.0950    0.0000 C.3     1  UNL1       -0.0531
     20 C          15.5273    9.4050    0.0000 C.3     1  UNL1       -0.0531
     21 C           8.5991   -2.5950    0.0000 C.3     1  UNL1       -0.0531
     22 C          16.3933    9.9050    0.0000 C.3     1  UNL1       -0.0531
     23 C           8.5991   -3.5950    0.0000 C.3     1  UNL1       -0.0531
     24 C          16.3933   10.9050    0.0000 C.3     1  UNL1       -0.0531
     25 C           7.7331   -4.0950    0.0000 C.3     1  UNL1       -0.0531
     26 C          17.2594   11.4050    0.0000 C.3     1  UNL1       -0.0531
     27 C           7.7331   -5.0950    0.0000 C.3     1  UNL1       -0.0530
     28 C          17.2594   12.4050    0.0000 C.3     1  UNL1       -0.0531
     29 C           6.8671   -5.5950    0.0000 C.3     1  UNL1       -0.0500
     30 C          18.1254   12.9050    0.0000 C.3     1  UNL1       -0.0533
     31 C           6.8671   -6.5950    0.0000 C.3     1  UNL1       -0.0185
     32 C          18.1254   13.9050    0.0000 C.3     1  UNL1       -0.0559
     33 C           6.0010   -7.0950    0.0000 C.3     1  UNL1        0.0928
     34 C          18.9914   14.4050    0.0000 C.3     1  UNL1       -0.0653
     35 C           5.1350   -8.5950    0.0000 C.2     1  UNL1        0.3319
     36 C           5.1350   -9.5950    0.0000 C.2     1  UNL1        0.0231
     37 C           4.2690  -10.0950    0.0000 C.2     1  UNL1       -0.0477
     38 C           4.2690  -11.0950    0.0000 C.ar    1  UNL1       -0.0211
     39 C           3.4030  -11.5950    0.0000 C.ar    1  UNL1       -0.0094
     40 C           5.1350  -11.5950    0.0000 C.ar    1  UNL1       -0.0509
     41 C           3.4030  -12.5950    0.0000 C.ar    1  UNL1        0.1588
     42 C           5.1350  -12.5950    0.0000 C.ar    1  UNL1       -0.0160
     43 C           4.2690  -13.0950    0.0000 C.ar    1  UNL1        0.1582
     44 H          11.8512    3.9876    0.0000 H       1  UNL1        0.0265
     45 H          11.4526    3.2973    0.0000 H       1  UNL1        0.0265
     46 H          13.1413    3.3224    0.0000 H       1  UNL1        0.0265
     47 H          13.5398    4.0127    0.0000 H       1  UNL1        0.0265
     48 H          12.2753    1.8224    0.0000 H       1  UNL1        0.0265
     49 H          12.6738    2.5127    0.0000 H       1  UNL1        0.0265
     50 H          12.7172    5.4876    0.0000 H       1  UNL1        0.0265
     51 H          12.3187    4.7973    0.0000 H       1  UNL1        0.0265
     52 H          10.9851    2.4876    0.0000 H       1  UNL1        0.0265
     53 H          10.5866    1.7973    0.0000 H       1  UNL1        0.0265
     54 H          14.0073    4.8224    0.0000 H       1  UNL1        0.0265
     55 H          14.4058    5.5127    0.0000 H       1  UNL1        0.0265
     56 H          11.4092    0.3224    0.0000 H       1  UNL1        0.0265
     57 H          11.8078    1.0127    0.0000 H       1  UNL1        0.0265
     58 H          13.5832    6.9876    0.0000 H       1  UNL1        0.0265
     59 H          13.1847    6.2973    0.0000 H       1  UNL1        0.0265
     60 H          10.1191    0.9876    0.0000 H       1  UNL1        0.0265
     61 H           9.7206    0.2973    0.0000 H       1  UNL1        0.0265
     62 H          14.8733    6.3224    0.0000 H       1  UNL1        0.0265
     63 H          15.2719    7.0127    0.0000 H       1  UNL1        0.0265
     64 H          10.5432   -1.1776    0.0000 H       1  UNL1        0.0265
     65 H          10.9417   -0.4873    0.0000 H       1  UNL1        0.0265
     66 H          14.4492    8.4876    0.0000 H       1  UNL1        0.0265
     67 H          14.0507    7.7973    0.0000 H       1  UNL1        0.0265
     68 H           9.2531   -0.5124    0.0000 H       1  UNL1        0.0265
     69 H           8.8546   -1.2027    0.0000 H       1  UNL1        0.0265
     70 H          15.7394    7.8224    0.0000 H       1  UNL1        0.0265
     71 H          16.1379    8.5127    0.0000 H       1  UNL1        0.0265
     72 H           9.6772   -2.6776    0.0000 H       1  UNL1        0.0265
     73 H          10.0757   -1.9873    0.0000 H       1  UNL1        0.0265
     74 H          15.3153    9.9876    0.0000 H       1  UNL1        0.0265
     75 H          14.9167    9.2973    0.0000 H       1  UNL1        0.0265
     76 H           8.3871   -2.0124    0.0000 H       1  UNL1        0.0265
     77 H           7.9885   -2.7027    0.0000 H       1  UNL1        0.0265
     78 H          16.6054    9.3224    0.0000 H       1  UNL1        0.0265
     79 H          17.0039   10.0127    0.0000 H       1  UNL1        0.0265
     80 H           8.8112   -4.1776    0.0000 H       1  UNL1        0.0265
     81 H           9.2097   -3.4873    0.0000 H       1  UNL1        0.0265
     82 H          16.1813   11.4876    0.0000 H       1  UNL1        0.0265
     83 H          15.7828   10.7973    0.0000 H       1  UNL1        0.0265
     84 H           7.5210   -3.5124    0.0000 H       1  UNL1        0.0265
     85 H           7.1225   -4.2027    0.0000 H       1  UNL1        0.0265
     86 H          17.4714   10.8224    0.0000 H       1  UNL1        0.0265
     87 H          17.8699   11.5127    0.0000 H       1  UNL1        0.0265
     88 H           7.9451   -5.6776    0.0000 H       1  UNL1        0.0265
     89 H           8.3437   -4.9873    0.0000 H       1  UNL1        0.0265
     90 H          17.0473   12.9876    0.0000 H       1  UNL1        0.0265
     91 H          16.6488   12.2973    0.0000 H       1  UNL1        0.0265
     92 H           6.6550   -5.0124    0.0000 H       1  UNL1        0.0266
     93 H           6.2565   -5.7027    0.0000 H       1  UNL1        0.0266
     94 H          18.3374   12.3224    0.0000 H       1  UNL1        0.0265
     95 H          18.7360   13.0127    0.0000 H       1  UNL1        0.0265
     96 H           7.0791   -7.1776    0.0000 H       1  UNL1        0.0298
     97 H           7.4776   -6.4873    0.0000 H       1  UNL1        0.0298
     98 H          17.9133   14.4876    0.0000 H       1  UNL1        0.0263
     99 H          17.5148   13.7973    0.0000 H       1  UNL1        0.0263
    100 H           5.7890   -6.5124    0.0000 H       1  UNL1        0.0697
    101 H           5.3905   -7.2027    0.0000 H       1  UNL1        0.0697
    102 H          19.3014   13.8681    0.0000 H       1  UNL1        0.0230
    103 H          19.5284   14.7150    0.0000 H       1  UNL1        0.0230
    104 H          18.6814   14.9419    0.0000 H       1  UNL1        0.0230
    105 H           5.6720   -9.9050    0.0000 H       1  UNL1        0.0689
    106 H           3.7320   -9.7850    0.0000 H       1  UNL1        0.0626
    107 H           2.8660  -11.2850    0.0000 H       1  UNL1        0.0661
    108 H           5.6720  -11.2850    0.0000 H       1  UNL1        0.0625
    109 H           5.6720  -12.9050    0.0000 H       1  UNL1        0.0655
    110 H           2.0000  -12.7850    0.0000 H       1  UNL1        0.2923
    111 H           4.8059  -14.4050    0.0000 H       1  UNL1        0.2923
@<TRIPOS>BOND
     1     1    33    1
     2     1    35    1
     3     2    35    2
     4     3    41    1
     5     3   110    1
     6     4    43    1
     7     4   111    1
     8     5     6    1
     9     5     7    1
    10     5    44    1
    11     5    45    1
    12     6     8    1
    13     6    46    1
    14     6    47    1
    15     7     9    1
    16     7    48    1
    17     7    49    1
    18     8    10    1
    19     8    50    1
    20     8    51    1
    21     9    11    1
    22     9    52    1
    23     9    53    1
    24    10    12    1
    25    10    54    1
    26    10    55    1
    27    11    13    1
    28    11    56    1
    29    11    57    1
    30    12    14    1
    31    12    58    1
    32    12    59    1
    33    13    15    1
    34    13    60    1
    35    13    61    1
    36    14    16    1
    37    14    62    1
    38    14    63    1
    39    15    17    1
    40    15    64    1
    41    15    65    1
    42    16    18    1
    43    16    66    1
    44    16    67    1
    45    17    19    1
    46    17    68    1
    47    17    69    1
    48    18    20    1
    49    18    70    1
    50    18    71    1
    51    19    21    1
    52    19    72    1
    53    19    73    1
    54    20    22    1
    55    20    74    1
    56    20    75    1
    57    21    23    1
    58    21    76    1
    59    21    77    1
    60    22    24    1
    61    22    78    1
    62    22    79    1
    63    23    25    1
    64    23    80    1
    65    23    81    1
    66    24    26    1
    67    24    82    1
    68    24    83    1
    69    25    27    1
    70    25    84    1
    71    25    85    1
    72    26    28    1
    73    26    86    1
    74    26    87    1
    75    27    29    1
    76    27    88    1
    77    27    89    1
    78    28    30    1
    79    28    90    1
    80    28    91    1
    81    29    31    1
    82    29    92    1
    83    29    93    1
    84    30    32    1
    85    30    94    1
    86    30    95    1
    87    31    33    1
    88    31    96    1
    89    31    97    1
    90    32    34    1
    91    32    98    1
    92    32    99    1
    93    33   100    1
    94    33   101    1
    95    34   102    1
    96    34   103    1
    97    34   104    1
    98    35    36    1
    99    36    37    2
   100    36   105    1
   101    37    38    1
   102    37   106    1
   103    38    39   ar
   104    38    40   ar
   105    39    41   ar
   106    39   107    1
   107    40    42   ar
   108    40   108    1
   109    41    43   ar
   110    42    43   ar
   111    42   109    1
