@<TRIPOS>MOLECULE
IMPHY016621
 27 28 0 0 0
SMALL
GASTEIGER

@<TRIPOS>ATOM
      1 O           2.0000    1.2422    0.0000 O.2     1  UNL1       -0.2968
      2 C           3.6942    0.2640    0.0000 C.3     1  UNL1        0.0347
      3 C           3.6942   -0.7360    0.0000 C.3     1  UNL1       -0.0246
      4 C           4.5607   -0.2360    0.0000 C.3     1  UNL1       -0.0362
      5 C           2.7431   -1.0450    0.0000 C.3     1  UNL1       -0.0334
      6 C           4.1942    1.1300    0.0000 C.3     1  UNL1       -0.0341
      7 C           2.7431    0.5730    0.0000 C.2     1  UNL1        0.1402
      8 C           2.1554   -0.2360    0.0000 C.3     1  UNL1        0.0093
      9 C           2.4341   -1.9961    0.0000 C.3     1  UNL1       -0.0617
     10 C           5.1942    1.1300    0.0000 C.3     1  UNL1       -0.0618
     11 C           3.6942    1.9961    0.0000 C.3     1  UNL1       -0.0618
     12 H           3.9463   -1.3024    0.0000 H       1  UNL1        0.0313
     13 H           4.9592   -0.7110    0.0000 H       1  UNL1        0.0278
     14 H           4.9592    0.2390    0.0000 H       1  UNL1        0.0278
     15 H           2.1308   -1.1420    0.0000 H       1  UNL1        0.0305
     16 H           4.5042    0.5931    0.0000 H       1  UNL1        0.0305
     17 H           1.6946    0.1789    0.0000 H       1  UNL1        0.0344
     18 H           1.6946   -0.6508    0.0000 H       1  UNL1        0.0344
     19 H           1.8445   -1.8045    0.0000 H       1  UNL1        0.0233
     20 H           2.2425   -2.5857    0.0000 H       1  UNL1        0.0233
     21 H           3.0238   -2.1876    0.0000 H       1  UNL1        0.0233
     22 H           5.1942    0.5100    0.0000 H       1  UNL1        0.0233
     23 H           5.8142    1.1300    0.0000 H       1  UNL1        0.0233
     24 H           5.1942    1.7500    0.0000 H       1  UNL1        0.0233
     25 H           4.2311    2.3061    0.0000 H       1  UNL1        0.0233
     26 H           3.3842    2.5330    0.0000 H       1  UNL1        0.0233
     27 H           3.1573    1.6861    0.0000 H       1  UNL1        0.0233
@<TRIPOS>BOND
     1     1     7    2
     2     2     3    1
     3     2     4    1
     4     2     6    1
     5     2     7    1
     6     3     4    1
     7     3     5    1
     8     3    12    1
     9     4    13    1
    10     4    14    1
    11     5     8    1
    12     5     9    1
    13     5    15    1
    14     6    10    1
    15     6    11    1
    16     6    16    1
    17     7     8    1
    18     8    17    1
    19     8    18    1
    20     9    19    1
    21     9    20    1
    22     9    21    1
    23    10    22    1
    24    10    23    1
    25    10    24    1
    26    11    25    1
    27    11    26    1
    28    11    27    1
