@<TRIPOS>MOLECULE
IMPHY002514
 41 43 0 0 0
SMALL
GASTEIGER

@<TRIPOS>ATOM
      1 O           3.5836   -0.2583    0.0000 O.3     1  UNL1       -0.4564
      2 O           8.0321   -0.5662    0.0000 O.3     1  UNL1       -0.3908
      3 O           6.2740    2.5062    0.0000 O.3     1  UNL1       -0.3874
      4 O           2.0000   -1.0630    0.0000 O.2     1  UNL1       -0.2505
      5 C           6.2619   -0.5630    0.0000 C.3     1  UNL1        0.0187
      6 C           4.5298   -1.5630    0.0000 C.3     1  UNL1        0.0128
      7 C           4.5298   -0.5630    0.0000 C.3     1  UNL1        0.1286
      8 C           5.3958   -0.0630    0.0000 C.2     1  UNL1       -0.0196
      9 C           6.2619   -1.5630    0.0000 C.3     1  UNL1       -0.0410
     10 C           5.3958   -2.0630    0.0000 C.3     1  UNL1       -0.0449
     11 C           7.1719   -0.0562    0.0000 C.3     1  UNL1        0.0670
     12 C           3.5836   -1.8678    0.0000 C.3     1  UNL1        0.0601
     13 C           5.3798    0.9785    0.0000 C.2     1  UNL1       -0.0412
     14 C           7.1799    0.9854    0.0000 C.3     1  UNL1        0.0039
     15 C           7.1279   -1.0630    0.0000 C.3     1  UNL1       -0.0533
     16 C           6.2778    1.5062    0.0000 C.3     1  UNL1        0.0787
     17 C           3.0000   -1.0630    0.0000 C.2     1  UNL1        0.3109
     18 C           3.2729   -2.8183    0.0000 C.3     1  UNL1       -0.0519
     19 C           4.5080    1.4684    0.0000 C.3     1  UNL1       -0.0410
     20 H           4.4399   -2.4083    0.0000 H       1  UNL1        0.0348
     21 H           4.4399    0.2822    0.0000 H       1  UNL1        0.0785
     22 H           6.4739   -2.1456    0.0000 H       1  UNL1        0.0274
     23 H           6.8725   -1.4554    0.0000 H       1  UNL1        0.0274
     24 H           4.9973   -2.5380    0.0000 H       1  UNL1        0.0270
     25 H           5.7944   -2.5380    0.0000 H       1  UNL1        0.0270
     26 H           7.7118    0.2486    0.0000 H       1  UNL1        0.0603
     27 H           2.9711   -1.9640    0.0000 H       1  UNL1        0.0415
     28 H           7.7899    0.8746    0.0000 H       1  UNL1        0.0319
     29 H           7.3935    1.5675    0.0000 H       1  UNL1        0.0319
     30 H           6.8179   -1.6000    0.0000 H       1  UNL1        0.0239
     31 H           7.6648   -1.3730    0.0000 H       1  UNL1        0.0239
     32 H           7.4379   -0.5261    0.0000 H       1  UNL1        0.0239
     33 H           6.8142    1.8173    0.0000 H       1  UNL1        0.0641
     34 H           2.6836   -2.6257    0.0000 H       1  UNL1        0.0238
     35 H           3.0803   -3.4076    0.0000 H       1  UNL1        0.0238
     36 H           3.8623   -3.0109    0.0000 H       1  UNL1        0.0238
     37 H           4.8118    2.0089    0.0000 H       1  UNL1        0.0275
     38 H           3.9676    1.7722    0.0000 H       1  UNL1        0.0275
     39 H           4.2043    0.9279    0.0000 H       1  UNL1        0.0275
     40 H           8.5726   -0.2624    0.0000 H       1  UNL1        0.2098
     41 H           6.8097    2.8183    0.0000 H       1  UNL1        0.2102
@<TRIPOS>BOND
     1     1     7    1
     2     1    17    1
     3    11     2    1
     4     2    40    1
     5    16     3    1
     6     3    41    1
     7     4    17    2
     8     5     8    1
     9     5     9    1
    10     5    11    1
    11     5    15    1
    12     6     7    1
    13     6    10    1
    14     6    12    1
    15     6    20    1
    16     7     8    1
    17     7    21    1
    18     8    13    2
    19     9    10    1
    20     9    22    1
    21     9    23    1
    22    10    24    1
    23    10    25    1
    24    11    14    1
    25    11    26    1
    26    12    17    1
    27    12    18    1
    28    12    27    1
    29    13    16    1
    30    13    19    1
    31    14    16    1
    32    14    28    1
    33    14    29    1
    34    15    30    1
    35    15    31    1
    36    15    32    1
    37    16    33    1
    38    18    34    1
    39    18    35    1
    40    18    36    1
    41    19    37    1
    42    19    38    1
    43    19    39    1
