@<TRIPOS>MOLECULE
IMPHY007141
 66 68 0 0 0
SMALL
GASTEIGER

@<TRIPOS>ATOM
      1 O           6.2061   -1.2872    0.0000 O.3     1  UNL1       -0.3632
      2 O           8.0018    0.5000    0.0000 O.3     1  UNL1       -0.4540
      3 O           3.6629   -0.0208    0.0000 O.2     1  UNL1       -0.4600
      4 O           4.5806   -1.5346    0.0000 O.3     1  UNL1       -0.4240
      5 O           3.7204    3.0445    0.0000 O.3     1  UNL1       -0.4599
      6 O           8.0018    2.2320    0.0000 O.2     1  UNL1       -0.2507
      7 O           2.8486   -1.5547    0.0000 O.2     1  UNL1       -0.2507
      8 O          10.5018    3.0980    0.0000 O.3     1  UNL1       -0.4583
      9 O           4.6037    4.5344    0.0000 O.2     1  UNL1       -0.2512
     10 O          12.0018    2.2320    0.0000 O.2     1  UNL1       -0.2511
     11 C           6.4140   -0.3090    0.0000 C.3     1  UNL1        0.1465
     12 C           5.4629    0.0000    0.0000 C.3     1  UNL1        0.0935
     13 C           7.1571   -0.9782    0.0000 C.3     1  UNL1        0.0823
     14 C           7.0018    0.5000    0.0000 C.3     1  UNL1        0.1535
     15 C           5.4629    1.0000    0.0000 C.2     1  UNL1       -0.0254
     16 C           4.5690   -0.5347    0.0000 C.3     1  UNL1        0.2549
     17 C           6.4140    1.3090    0.0000 C.2     1  UNL1       -0.0368
     18 C           4.5690    1.5346    0.0000 C.2     1  UNL1        0.0277
     19 C           3.6629    1.0208    0.0000 C.2     1  UNL1        0.0956
     20 C           4.5806    2.5346    0.0000 C.3     1  UNL1        0.1206
     21 C           8.5018    1.3660    0.0000 C.2     1  UNL1        0.3116
     22 C           3.7204   -2.0446    0.0000 C.2     1  UNL1        0.3102
     23 C           9.5018    1.3660    0.0000 C.3     1  UNL1        0.0842
     24 C          10.0018    2.2320    0.0000 C.3     1  UNL1        0.1180
     25 C           3.7319   -3.0445    0.0000 C.3     1  UNL1        0.0474
     26 C           2.8718   -3.5545    0.0000 C.3     1  UNL1       -0.0367
     27 C          10.8678    1.7320    0.0000 C.3     1  UNL1       -0.0246
     28 C           9.1358    2.7320    0.0000 C.3     1  UNL1       -0.0246
     29 C           3.7319    4.0445    0.0000 C.2     1  UNL1        0.3043
     30 C           2.8833   -4.5545    0.0000 C.3     1  UNL1       -0.0622
     31 C           2.0000   -3.0646    0.0000 C.3     1  UNL1       -0.0622
     32 C           2.8718    4.5545    0.0000 C.3     1  UNL1        0.0332
     33 C          11.5018    3.0980    0.0000 C.2     1  UNL1        0.3045
     34 C          12.0018    3.9641    0.0000 C.3     1  UNL1        0.0333
     35 H           5.5583   -0.8447    0.0000 H       1  UNL1        0.0452
     36 H           7.4482   -1.5256    0.0000 H       1  UNL1        0.0590
     37 H           7.6457   -0.5965    0.0000 H       1  UNL1        0.0590
     38 H           7.2832   -0.0525    0.0000 H       1  UNL1        0.0810
     39 H           4.0351   -0.8499    0.0000 H       1  UNL1        0.1213
     40 H           6.6056    1.8986    0.0000 H       1  UNL1        0.0612
     41 H           3.1272    1.3328    0.0000 H       1  UNL1        0.1029
     42 H           5.1898    2.4198    0.0000 H       1  UNL1        0.0750
     43 H           4.7993    3.1147    0.0000 H       1  UNL1        0.0750
     44 H           9.3941    0.7554    0.0000 H       1  UNL1        0.0417
     45 H          10.0844    1.1539    0.0000 H       1  UNL1        0.0417
     46 H           3.9507   -3.6247    0.0000 H       1  UNL1        0.0380
     47 H           4.3412   -2.9298    0.0000 H       1  UNL1        0.0380
     48 H           2.8646   -2.9346    0.0000 H       1  UNL1        0.0301
     49 H          10.5578    1.1951    0.0000 H       1  UNL1        0.0268
     50 H          11.4047    1.4220    0.0000 H       1  UNL1        0.0268
     51 H          11.1778    2.2689    0.0000 H       1  UNL1        0.0268
     52 H           9.4458    3.2689    0.0000 H       1  UNL1        0.0268
     53 H           8.5988    3.0420    0.0000 H       1  UNL1        0.0268
     54 H           8.8258    2.1951    0.0000 H       1  UNL1        0.0268
     55 H           2.2634   -4.5616    0.0000 H       1  UNL1        0.0232
     56 H           2.8905   -5.1744    0.0000 H       1  UNL1        0.0232
     57 H           3.5033   -4.5473    0.0000 H       1  UNL1        0.0232
     58 H           2.3038   -2.5241    0.0000 H       1  UNL1        0.0232
     59 H           1.4595   -2.7608    0.0000 H       1  UNL1        0.0232
     60 H           1.6962   -3.6050    0.0000 H       1  UNL1        0.0232
     61 H           3.1879    5.0878    0.0000 H       1  UNL1        0.0342
     62 H           2.3384    4.8706    0.0000 H       1  UNL1        0.0342
     63 H           2.5556    4.0211    0.0000 H       1  UNL1        0.0342
     64 H          12.5387    3.6541    0.0000 H       1  UNL1        0.0342
     65 H          12.3118    4.5010    0.0000 H       1  UNL1        0.0342
     66 H          11.4648    4.2741    0.0000 H       1  UNL1        0.0342
@<TRIPOS>BOND
     1    11     1    1
     2     1    13    1
     3    14     2    1
     4     2    21    1
     5     3    16    1
     6     3    19    1
     7    16     4    1
     8     4    22    1
     9     5    20    1
    10     5    29    1
    11     6    21    2
    12     7    22    2
    13     8    24    1
    14     8    33    1
    15     9    29    2
    16    10    33    2
    17    11    12    1
    18    11    13    1
    19    11    14    1
    20    12    15    1
    21    12    16    1
    22    12    35    1
    23    13    36    1
    24    13    37    1
    25    14    17    1
    26    14    38    1
    27    15    17    2
    28    15    18    1
    29    16    39    1
    30    17    40    1
    31    18    19    2
    32    18    20    1
    33    19    41    1
    34    20    42    1
    35    20    43    1
    36    21    23    1
    37    22    25    1
    38    23    24    1
    39    23    44    1
    40    23    45    1
    41    24    27    1
    42    24    28    1
    43    25    26    1
    44    25    46    1
    45    25    47    1
    46    26    30    1
    47    26    31    1
    48    26    48    1
    49    27    49    1
    50    27    50    1
    51    27    51    1
    52    28    52    1
    53    28    53    1
    54    28    54    1
    55    29    32    1
    56    30    55    1
    57    30    56    1
    58    30    57    1
    59    31    58    1
    60    31    59    1
    61    31    60    1
    62    32    61    1
    63    32    62    1
    64    32    63    1
    65    33    34    1
    66    34    64    1
    67    34    65    1
    68    34    66    1
