@<TRIPOS>MOLECULE
IMPHY001637
 47 51 0 0 0
SMALL
GASTEIGER

@<TRIPOS>ATOM
      1 O           5.1350   -1.3151    0.0000 O.3     1  UNL1       -0.3313
      2 O           6.8671   -1.3151    0.0000 O.3     1  UNL1       -0.4608
      3 O           5.1350   -4.3151    0.0000 O.3     1  UNL1       -0.3864
      4 O           3.4030   -3.3151    0.0000 O.3     1  UNL1       -0.3865
      5 O           6.8671   -3.3151    0.0000 O.3     1  UNL1       -0.3829
      6 O           2.5369   -1.8151    0.0000 O.3     1  UNL1       -0.3924
      7 O           5.4870    3.4548    0.0000 O.2     1  UNL1       -0.2673
      8 N           7.1027    2.7314    0.0000 N.ar    1  UNL1       -0.2743
      9 N           9.5447    3.7056    0.0000 N.ar    1  UNL1       -0.2535
     10 C           5.1350   -3.3151    0.0000 C.3     1  UNL1        0.1152
     11 C           4.2690   -2.8151    0.0000 C.3     1  UNL1        0.1120
     12 C           6.0010   -2.8151    0.0000 C.3     1  UNL1        0.1454
     13 C           4.2690   -1.8151    0.0000 C.3     1  UNL1        0.1140
     14 C           6.0010   -1.8151    0.0000 C.3     1  UNL1        0.2308
     15 C           3.4030   -1.3151    0.0000 C.3     1  UNL1        0.0731
     16 C           7.7551    1.2508    0.0000 C.ar    1  UNL1        0.0116
     17 C           6.8910    1.7541    0.0000 C.ar    1  UNL1        0.0581
     18 C           6.8671   -0.3151    0.0000 C.ar    1  UNL1        0.1247
     19 C           8.0976    2.8321    0.0000 C.ar    1  UNL1        0.0831
     20 C           8.5008    1.9170    0.0000 C.ar    1  UNL1        0.0117
     21 C           7.7671    0.2092    0.0000 C.ar    1  UNL1       -0.0101
     22 C           5.9790    1.2508    0.0000 C.ar    1  UNL1       -0.0337
     23 C           5.9670    0.2092    0.0000 C.ar    1  UNL1       -0.0178
     24 C           8.5395    3.7754    0.0000 C.ar    1  UNL1        0.0885
     25 C           6.4807    3.5670    0.0000 C.ar    1  UNL1        0.2563
     26 C           9.5080    1.9448    0.0000 C.ar    1  UNL1       -0.0338
     27 C           7.9370    4.6251    0.0000 C.ar    1  UNL1       -0.0291
     28 C           6.9007    4.5202    0.0000 C.ar    1  UNL1        0.0054
     29 C          10.0158    2.8150    0.0000 C.ar    1  UNL1        0.0290
     30 H           5.6720   -3.6251    0.0000 H       1  UNL1        0.0648
     31 H           4.2690   -3.4351    0.0000 H       1  UNL1        0.0647
     32 H           6.5380   -2.5051    0.0000 H       1  UNL1        0.0683
     33 H           4.2690   -1.1951    0.0000 H       1  UNL1        0.0647
     34 H           6.0010   -1.1951    0.0000 H       1  UNL1        0.1084
     35 H           3.8015   -0.8401    0.0000 H       1  UNL1        0.0584
     36 H           3.0044   -0.8401    0.0000 H       1  UNL1        0.0584
     37 H           4.5981   -4.6251    0.0000 H       1  UNL1        0.2100
     38 H           3.4030   -3.9351    0.0000 H       1  UNL1        0.2100
     39 H           6.8671   -3.9351    0.0000 H       1  UNL1        0.2102
     40 H           8.3064   -0.0966    0.0000 H       1  UNL1        0.0661
     41 H           5.4470    1.5690    0.0000 H       1  UNL1        0.0640
     42 H           5.4277   -0.0966    0.0000 H       1  UNL1        0.0655
     43 H           9.8241    1.4115    0.0000 H       1  UNL1        0.0639
     44 H           2.0000   -1.5051    0.0000 H       1  UNL1        0.2095
     45 H           8.1936    5.1895    0.0000 H       1  UNL1        0.0641
     46 H           6.5363    5.0218    0.0000 H       1  UNL1        0.0672
     47 H          10.6357    2.8021    0.0000 H       1  UNL1        0.0830
@<TRIPOS>BOND
     1     1    13    1
     2     1    14    1
     3    14     2    1
     4     2    18    1
     5    10     3    1
     6     3    37    1
     7    11     4    1
     8     4    38    1
     9    12     5    1
    10     5    39    1
    11     6    15    1
    12     6    44    1
    13     7    25    2
    14     8    17   ar
    15     8    19   ar
    16     8    25   ar
    17     9    24   ar
    18     9    29   ar
    19    10    11    1
    20    10    12    1
    21    10    30    1
    22    11    13    1
    23    11    31    1
    24    12    14    1
    25    12    32    1
    26    13    15    1
    27    13    33    1
    28    14    34    1
    29    15    35    1
    30    15    36    1
    31    16    17   ar
    32    16    20   ar
    33    16    21   ar
    34    17    22   ar
    35    18    21   ar
    36    18    23   ar
    37    19    20   ar
    38    19    24   ar
    39    20    26   ar
    40    21    40    1
    41    22    23   ar
    42    22    41    1
    43    23    42    1
    44    24    27   ar
    45    25    28   ar
    46    26    29   ar
    47    26    43    1
    48    27    28   ar
    49    27    45    1
    50    28    46    1
    51    29    47    1
