@<TRIPOS>MOLECULE
IMPHY002697
 56 59 0 0 0
SMALL
GASTEIGER

@<TRIPOS>ATOM
      1 O           5.1350   -1.6796    0.0000 O.3     1  UNL1       -0.3313
      2 O           6.8671   -1.6796    0.0000 O.3     1  UNL1       -0.4606
      3 O           5.1350   -4.6796    0.0000 O.3     1  UNL1       -0.3864
      4 O           3.4030   -3.6796    0.0000 O.3     1  UNL1       -0.3865
      5 O           6.8671   -3.6796    0.0000 O.3     1  UNL1       -0.3829
      6 O           2.5369   -2.1796    0.0000 O.3     1  UNL1       -0.3924
      7 O           8.6230    1.3829    0.0000 O.3     1  UNL1       -0.4828
      8 O           5.1208    1.3996    0.0000 O.3     1  UNL1       -0.4942
      9 O           6.0308    2.8930    0.0000 O.2     1  UNL1       -0.2917
     10 O          12.0987    4.3696    0.0000 O.3     1  UNL1       -0.5068
     11 C           5.1350   -3.6796    0.0000 C.3     1  UNL1        0.1152
     12 C           4.2690   -3.1796    0.0000 C.3     1  UNL1        0.1120
     13 C           6.0010   -3.1796    0.0000 C.3     1  UNL1        0.1454
     14 C           4.2690   -2.1796    0.0000 C.3     1  UNL1        0.1140
     15 C           6.0010   -2.1796    0.0000 C.3     1  UNL1        0.2308
     16 C           3.4030   -1.6796    0.0000 C.3     1  UNL1        0.0731
     17 C           6.8671   -0.6796    0.0000 C.ar    1  UNL1        0.1310
     18 C           8.6269    2.3829    0.0000 C.3     1  UNL1        0.1322
     19 C           7.7551    0.8863    0.0000 C.ar    1  UNL1        0.1389
     20 C           6.8910    1.3896    0.0000 C.ar    1  UNL1        0.1009
     21 C           7.7628    2.8863    0.0000 C.3     1  UNL1        0.0520
     22 C           7.7671   -0.1553    0.0000 C.ar    1  UNL1        0.0229
     23 C           5.9670   -0.1553    0.0000 C.ar    1  UNL1        0.0228
     24 C           6.8948    2.3896    0.0000 C.2     1  UNL1        0.1740
     25 C           5.9790    0.8863    0.0000 C.ar    1  UNL1        0.1376
     26 C           9.4948    2.8796    0.0000 C.ar    1  UNL1       -0.0067
     27 C           9.4987    3.8796    0.0000 C.ar    1  UNL1       -0.0516
     28 C          10.3589    2.3763    0.0000 C.ar    1  UNL1       -0.0516
     29 C          10.3666    4.3762    0.0000 C.ar    1  UNL1       -0.0198
     30 C          11.2269    2.8729    0.0000 C.ar    1  UNL1       -0.0198
     31 C          11.2307    3.8729    0.0000 C.ar    1  UNL1        0.1169
     32 C           4.2472    0.9130    0.0000 C.3     1  UNL1        0.0788
     33 H           4.5981   -3.9896    0.0000 H       1  UNL1        0.0648
     34 H           4.2690   -3.7996    0.0000 H       1  UNL1        0.0647
     35 H           6.0010   -3.7996    0.0000 H       1  UNL1        0.0683
     36 H           4.2690   -1.5596    0.0000 H       1  UNL1        0.0647
     37 H           6.5380   -2.4896    0.0000 H       1  UNL1        0.1084
     38 H           3.8015   -1.2046    0.0000 H       1  UNL1        0.0584
     39 H           3.0044   -1.2046    0.0000 H       1  UNL1        0.0584
     40 H           4.5981   -4.9896    0.0000 H       1  UNL1        0.2100
     41 H           3.4030   -4.2996    0.0000 H       1  UNL1        0.2100
     42 H           6.8671   -4.2996    0.0000 H       1  UNL1        0.2102
     43 H           8.6293    3.0029    0.0000 H       1  UNL1        0.0789
     44 H           8.1632    3.3597    0.0000 H       1  UNL1        0.0385
     45 H           7.3661    3.3628    0.0000 H       1  UNL1        0.0385
     46 H           8.3064   -0.4611    0.0000 H       1  UNL1        0.0691
     47 H           5.4277   -0.4611    0.0000 H       1  UNL1        0.0691
     48 H           2.0000   -1.8696    0.0000 H       1  UNL1        0.2095
     49 H           8.9630    4.1916    0.0000 H       1  UNL1        0.0623
     50 H          10.3565    1.7563    0.0000 H       1  UNL1        0.0623
     51 H          10.3690    4.9962    0.0000 H       1  UNL1        0.0654
     52 H          11.7626    2.5608    0.0000 H       1  UNL1        0.0654
     53 H           3.9455    1.4546    0.0000 H       1  UNL1        0.0660
     54 H           3.7056    0.6113    0.0000 H       1  UNL1        0.0660
     55 H           4.5489    0.3713    0.0000 H       1  UNL1        0.0660
     56 H          12.1011    4.9896    0.0000 H       1  UNL1        0.2921
@<TRIPOS>BOND
     1     1    14    1
     2     1    15    1
     3    15     2    1
     4     2    17    1
     5    11     3    1
     6     3    40    1
     7    12     4    1
     8     4    41    1
     9    13     5    1
    10     5    42    1
    11     6    16    1
    12     6    48    1
    13     7    18    1
    14     7    19    1
    15     8    25    1
    16     8    32    1
    17     9    24    2
    18    10    31    1
    19    10    56    1
    20    11    12    1
    21    11    13    1
    22    11    33    1
    23    12    14    1
    24    12    34    1
    25    13    15    1
    26    13    35    1
    27    14    16    1
    28    14    36    1
    29    15    37    1
    30    16    38    1
    31    16    39    1
    32    17    22   ar
    33    17    23   ar
    34    18    21    1
    35    18    26    1
    36    18    43    1
    37    19    20   ar
    38    19    22   ar
    39    20    24    1
    40    20    25   ar
    41    21    24    1
    42    21    44    1
    43    21    45    1
    44    22    46    1
    45    23    25   ar
    46    23    47    1
    47    26    27   ar
    48    26    28   ar
    49    27    29   ar
    50    27    49    1
    51    28    30   ar
    52    28    50    1
    53    29    31   ar
    54    29    51    1
    55    30    31   ar
    56    30    52    1
    57    32    53    1
    58    32    54    1
    59    32    55    1
