@<TRIPOS>MOLECULE
IMPHY004035
 73 78 0 0 0
SMALL
GASTEIGER

@<TRIPOS>ATOM
      1 O           5.5954   -2.5246    0.0000 O.3     1  UNL1       -0.3448
      2 O           3.9300   -1.4434    0.0000 O.3     1  UNL1       -0.3480
      3 O           8.3882    2.8128    0.0000 O.3     1  UNL1       -0.3908
      4 O          12.0027    2.8546    0.0000 O.3     1  UNL1       -0.3914
      5 C           6.6628   -0.2898    0.0000 C.3     1  UNL1       -0.0233
      6 C           7.5288   -0.7898    0.0000 C.3     1  UNL1       -0.0295
      7 C           5.9258   -0.9569    0.0000 C.3     1  UNL1       -0.0015
      8 C           8.3948   -0.2898    0.0000 C.3     1  UNL1       -0.0305
      9 C           6.3309   -1.8647    0.0000 C.3     1  UNL1        0.0660
     10 C           8.3948    0.7102    0.0000 C.3     1  UNL1       -0.0262
     11 C           7.3196   -1.7616    0.0000 C.3     1  UNL1       -0.0226
     12 C           6.6628    0.7102    0.0000 C.3     1  UNL1       -0.0467
     13 C           4.9434   -1.0636    0.0000 C.3     1  UNL1        0.0160
     14 C           7.5288    1.2102    0.0000 C.3     1  UNL1       -0.0486
     15 C           9.2888    1.2449    0.0000 C.3     1  UNL1        0.0181
     16 C           4.7396   -2.0305    0.0000 C.3     1  UNL1        0.1732
     17 C           5.7968    0.2102    0.0000 C.3     1  UNL1       -0.0590
     18 C           9.2888   -0.8245    0.0000 C.3     1  UNL1       -0.0311
     19 C          10.1949    0.7310    0.0000 C.2     1  UNL1       -0.0624
     20 C           9.2637    2.3296    0.0000 C.3     1  UNL1        0.0669
     21 C           4.2723   -0.3222    0.0000 C.3     1  UNL1       -0.0572
     22 C           4.6359   -3.0251    0.0000 C.3     1  UNL1        0.0020
     23 C          10.1949   -0.3106    0.0000 C.2     1  UNL1       -0.0838
     24 C           8.4189    1.7382    0.0000 C.3     1  UNL1       -0.0532
     25 C          11.1386    1.2663    0.0000 C.3     1  UNL1       -0.0049
     26 C          10.1949    2.8865    0.0000 C.3     1  UNL1        0.0004
     27 C          11.1386    2.3512    0.0000 C.3     1  UNL1        0.0613
     28 C           3.7227   -3.4327    0.0000 C.3     1  UNL1       -0.0435
     29 C           2.9132   -2.8456    0.0000 C.3     1  UNL1       -0.0201
     30 C           3.0169   -1.8510    0.0000 C.3     1  UNL1        0.0535
     31 C           2.0000   -3.2531    0.0000 C.3     1  UNL1       -0.0603
     32 H           8.2158   -1.2903    0.0000 H       1  UNL1        0.0310
     33 H           5.5777   -0.1814    0.0000 H       1  UNL1        0.0335
     34 H           8.3883   -1.1398    0.0000 H       1  UNL1        0.0310
     35 H           6.6756   -2.6416    0.0000 H       1  UNL1        0.0600
     36 H           9.1342    0.2909    0.0000 H       1  UNL1        0.0313
     37 H           7.3187   -2.3816    0.0000 H       1  UNL1        0.0293
     38 H           7.9361   -1.8277    0.0000 H       1  UNL1        0.0293
     39 H           6.4507    1.2928    0.0000 H       1  UNL1        0.0271
     40 H           6.0522    0.6025    0.0000 H       1  UNL1        0.0271
     41 H           4.3448   -1.2253    0.0000 H       1  UNL1        0.0354
     42 H           7.9274    1.6852    0.0000 H       1  UNL1        0.0268
     43 H           7.1303    1.6852    0.0000 H       1  UNL1        0.0268
     44 H           6.1068    0.7471    0.0000 H       1  UNL1        0.0235
     45 H           5.2598    0.5202    0.0000 H       1  UNL1        0.0235
     46 H           5.4868   -0.3267    0.0000 H       1  UNL1        0.0235
     47 H           8.8842   -1.2942    0.0000 H       1  UNL1        0.0310
     48 H           9.6824   -1.3035    0.0000 H       1  UNL1        0.0310
     49 H           9.2529    2.9495    0.0000 H       1  UNL1        0.0603
     50 H           4.7320    0.0939    0.0000 H       1  UNL1        0.0234
     51 H           3.8562    0.1375    0.0000 H       1  UNL1        0.0234
     52 H           3.8126   -0.7382    0.0000 H       1  UNL1        0.0234
     53 H           4.7864   -3.6266    0.0000 H       1  UNL1        0.0317
     54 H           5.2544   -2.9814    0.0000 H       1  UNL1        0.0317
     55 H          10.7306   -0.6227    0.0000 H       1  UNL1        0.0572
     56 H           8.7248    2.2775    0.0000 H       1  UNL1        0.0239
     57 H           7.8796    2.0440    0.0000 H       1  UNL1        0.0239
     58 H           8.1131    1.1989    0.0000 H       1  UNL1        0.0239
     59 H          11.3477    0.6826    0.0000 H       1  UNL1        0.0335
     60 H          11.7495    1.3724    0.0000 H       1  UNL1        0.0335
     61 H          10.5885    3.3655    0.0000 H       1  UNL1        0.0315
     62 H           9.7903    3.3563    0.0000 H       1  UNL1        0.0315
     63 H          11.1351    2.9712    0.0000 H       1  UNL1        0.0597
     64 H           3.2771   -3.8637    0.0000 H       1  UNL1        0.0270
     65 H           4.0699   -3.9464    0.0000 H       1  UNL1        0.0270
     66 H           2.4113   -2.4816    0.0000 H       1  UNL1        0.0320
     67 H           2.8664   -1.2495    0.0000 H       1  UNL1        0.0563
     68 H           2.3984   -1.8948    0.0000 H       1  UNL1        0.0563
     69 H           8.3762    3.4327    0.0000 H       1  UNL1        0.2098
     70 H           1.7473   -2.6869    0.0000 H       1  UNL1        0.0233
     71 H           1.4338   -3.5058    0.0000 H       1  UNL1        0.0233
     72 H           2.2527   -3.8193    0.0000 H       1  UNL1        0.0233
     73 H          12.5409    2.5467    0.0000 H       1  UNL1        0.2098
@<TRIPOS>BOND
     1     1     9    1
     2    16     1    1
     3     2    16    1
     4     2    30    1
     5    20     3    1
     6     3    69    1
     7    27     4    1
     8     4    73    1
     9     5     6    1
    10     5     7    1
    11     5    12    1
    12     5    17    1
    13     6     8    1
    14     6    11    1
    15     6    32    1
    16     7     9    1
    17     7    13    1
    18     7    33    1
    19     8    10    1
    20     8    18    1
    21     8    34    1
    22     9    11    1
    23     9    35    1
    24    10    14    1
    25    10    15    1
    26    10    36    1
    27    11    37    1
    28    11    38    1
    29    12    14    1
    30    12    39    1
    31    12    40    1
    32    13    16    1
    33    13    21    1
    34    13    41    1
    35    14    42    1
    36    14    43    1
    37    15    19    1
    38    15    20    1
    39    15    24    1
    40    16    22    1
    41    17    44    1
    42    17    45    1
    43    17    46    1
    44    18    23    1
    45    18    47    1
    46    18    48    1
    47    19    23    2
    48    19    25    1
    49    20    26    1
    50    20    49    1
    51    21    50    1
    52    21    51    1
    53    21    52    1
    54    22    28    1
    55    22    53    1
    56    22    54    1
    57    23    55    1
    58    24    56    1
    59    24    57    1
    60    24    58    1
    61    25    27    1
    62    25    59    1
    63    25    60    1
    64    26    27    1
    65    26    61    1
    66    26    62    1
    67    27    63    1
    68    28    29    1
    69    28    64    1
    70    28    65    1
    71    29    30    1
    72    29    31    1
    73    29    66    1
    74    30    67    1
    75    30    68    1
    76    31    70    1
    77    31    71    1
    78    31    72    1
