@<TRIPOS>MOLECULE
IMPHY010791
 17 20 0 0 0
SMALL
GASTEIGER

@<TRIPOS>ATOM
      1 O           5.0190   -1.0654    0.0000 O.3     1  UNL1       -0.4473
      2 O           6.9814    1.5506    0.0000 O.3     1  UNL1       -0.2185
      3 O           6.4311   -2.1431    0.0000 O.2     1  UNL1       -0.2449
      4 N           3.7595    1.3281    0.0000 N.3     1  UNL1       -0.2718
      5 C           4.8830   -0.0807    0.0000 C.3     1  UNL1        0.1682
      6 C           3.9820    0.3532    0.0000 C.3     1  UNL1        0.0982
      7 C           4.3830    2.1099    0.0000 C.3     1  UNL1        0.0643
      8 C           5.6882   -0.6989    0.0000 C.3     1  UNL1        0.0616
      9 C           5.7840    0.3532    0.0000 C.2     1  UNL1        0.0291
     10 C           5.3830    2.1099    0.0000 C.3     1  UNL1        0.0533
     11 C           3.2295   -0.3670    0.0000 C.3     1  UNL1        0.0199
     12 C           6.0065    1.3281    0.0000 C.3     1  UNL1        0.1751
     13 C           2.7690    1.6504    0.0000 C.3     1  UNL1        0.0721
     14 C           2.2318   -0.0677    0.0000 C.3     1  UNL1        0.0029
     15 C           2.0000    0.9478    0.0000 C.3     1  UNL1        0.0174
     16 C           6.4691   -0.3671    0.0000 C.2     1  UNL1        0.0792
     17 C           5.9973   -1.2421    0.0000 C.2     1  UNL1        0.3411
@<TRIPOS>BOND
     1     1     5    1
     2     1    17    1
     3     2    12    1
     4     3    17    2
     5     4     6    1
     6     4     7    1
     7     4    13    1
     8     5     6    1
     9     5     8    1
    10     5     9    1
    11     6    11    1
    12     7     8    1
    13     7    10    1
    14     9    12    1
    15     9    16    2
    16    10    12    1
    17    11    14    1
    18    13    15    1
    19    14    15    1
    20    16    17    1
