@<TRIPOS>MOLECULE
IMPHY011734
 40 41 0 0 0
SMALL
GASTEIGER

@<TRIPOS>ATOM
      1 O           5.7039    2.1163    0.0000 O.3     1  UNL1       -0.3647
      2 C           5.2039    1.2497    0.0000 C.3     1  UNL1        0.0966
      3 C           6.2039    1.2497    0.0000 C.3     1  UNL1        0.0887
      4 C           6.7039    0.3837    0.0000 C.3     1  UNL1       -0.0202
      5 C           4.7039    0.3837    0.0000 C.3     1  UNL1       -0.0033
      6 C           4.7040    2.1158    0.0000 C.3     1  UNL1       -0.0331
      7 C           6.4359   -0.6163    0.0000 C.3     1  UNL1       -0.0296
      8 C           3.8378    0.8837    0.0000 C.2     1  UNL1       -0.0846
      9 C           2.9718   -0.6163    0.0000 C.3     1  UNL1       -0.0135
     10 C           5.5699   -1.1163    0.0000 C.2     1  UNL1       -0.0764
     11 C           2.9718    0.3837    0.0000 C.2     1  UNL1       -0.0819
     12 C           3.8378   -1.1163    0.0000 C.3     1  UNL1       -0.0259
     13 C           4.7039   -0.6163    0.0000 C.2     1  UNL1       -0.0842
     14 C           2.0000   -0.8520    0.0000 C.3     1  UNL1       -0.0561
     15 C           2.7361   -1.5881    0.0000 C.3     1  UNL1       -0.0561
     16 C           5.5699   -2.1163    0.0000 C.3     1  UNL1       -0.0438
     17 H           6.9400    1.6746    0.0000 H       1  UNL1        0.0625
     18 H           7.2408    0.0737    0.0000 H       1  UNL1        0.0294
     19 H           7.1423    0.8221    0.0000 H       1  UNL1        0.0294
     20 H           4.3939   -0.1532    0.0000 H       1  UNL1        0.0336
     21 H           5.2408    0.0737    0.0000 H       1  UNL1        0.0336
     22 H           5.2409    2.4258    0.0000 H       1  UNL1        0.0258
     23 H           4.3940    2.6528    0.0000 H       1  UNL1        0.0258
     24 H           4.1670    1.8059    0.0000 H       1  UNL1        0.0258
     25 H           6.5964   -1.2152    0.0000 H       1  UNL1        0.0311
     26 H           7.0559   -0.6163    0.0000 H       1  UNL1        0.0311
     27 H           3.5278    1.4206    0.0000 H       1  UNL1        0.0570
     28 H           2.4349    0.6937    0.0000 H       1  UNL1        0.0574
     29 H           3.4393   -1.5912    0.0000 H       1  UNL1        0.0316
     30 H           4.2364   -1.5912    0.0000 H       1  UNL1        0.0316
     31 H           5.1024   -0.1413    0.0000 H       1  UNL1        0.0572
     32 H           2.1335   -1.4419    0.0000 H       1  UNL1        0.0238
     33 H           2.5899   -2.1906    0.0000 H       1  UNL1        0.0238
     34 H           3.3386   -1.7343    0.0000 H       1  UNL1        0.0238
     35 H           1.8538   -0.2495    0.0000 H       1  UNL1        0.0238
     36 H           1.3975   -0.9982    0.0000 H       1  UNL1        0.0238
     37 H           2.1462   -1.4546    0.0000 H       1  UNL1        0.0238
     38 H           4.9499   -2.1163    0.0000 H       1  UNL1        0.0274
     39 H           5.5699   -2.7363    0.0000 H       1  UNL1        0.0274
     40 H           6.1899   -2.1163    0.0000 H       1  UNL1        0.0274
@<TRIPOS>BOND
     1     1     2    1
     2     1     3    1
     3     2     3    1
     4     2     5    1
     5     2     6    1
     6     3     4    1
     7     3    17    1
     8     4     7    1
     9     4    18    1
    10     4    19    1
    11     5     8    1
    12     5    20    1
    13     5    21    1
    14     6    22    1
    15     6    23    1
    16     6    24    1
    17     7    10    1
    18     7    25    1
    19     7    26    1
    20     8    11    2
    21     8    27    1
    22     9    11    1
    23     9    12    1
    24     9    14    1
    25     9    15    1
    26    10    13    2
    27    10    16    1
    28    11    28    1
    29    12    13    1
    30    12    29    1
    31    12    30    1
    32    13    31    1
    33    14    35    1
    34    14    36    1
    35    14    37    1
    36    15    32    1
    37    15    33    1
    38    15    34    1
    39    16    38    1
    40    16    39    1
    41    16    40    1
