@<TRIPOS>MOLECULE
IMPHY011179
 48 51 0 0 0
SMALL
GASTEIGER

@<TRIPOS>ATOM
      1 O           3.3100   -3.0311    0.0000 O.3     1  UNL1       -0.3641
      2 O           5.6669    0.7151    0.0000 O.3     1  UNL1       -0.4561
      3 O           2.3100   -1.6169    0.0000 O.3     1  UNL1       -0.3753
      4 O           3.0688    0.2151    0.0000 O.3     1  UNL1       -0.4581
      5 O           4.4927   -1.0336    0.0000 O.2     1  UNL1       -0.2475
      6 O           4.2245   -0.2081    0.0000 O.2     1  UNL1       -0.2453
      7 N           4.5917    3.1869    0.0000 N.3     1  UNL1       -0.2886
      8 C           4.0171   -2.3240    0.0000 C.3     1  UNL1        0.1380
      9 C           4.2759   -3.2899    0.0000 C.3     1  UNL1        0.0815
     10 C           3.3100   -1.6169    0.0000 C.3     1  UNL1        0.1910
     11 C           4.9830   -2.0652    0.0000 C.3     1  UNL1        0.0221
     12 C           4.8009    2.2151    0.0000 C.3     1  UNL1        0.0723
     13 C           5.6669    1.7151    0.0000 C.3     1  UNL1        0.1239
     14 C           4.6820    1.4999    0.0000 C.3     1  UNL1       -0.0010
     15 C           4.0873    2.3140    0.0000 C.3     1  UNL1        0.0033
     16 C           3.9348    1.7151    0.0000 C.2     1  UNL1       -0.0148
     17 C           3.6029    3.2899    0.0000 C.3     1  UNL1        0.0182
     18 C           5.4830   -1.1992    0.0000 C.2     1  UNL1        0.0352
     19 C           2.6672   -2.3829    0.0000 C.3     1  UNL1       -0.0226
     20 C           5.5918   -2.8585    0.0000 C.3     1  UNL1       -0.0554
     21 C           3.5688   -0.6510    0.0000 C.2     1  UNL1        0.3422
     22 C           3.1978    2.3821    0.0000 C.2     1  UNL1       -0.0660
     23 C           3.9348    0.7151    0.0000 C.3     1  UNL1        0.1153
     24 C           5.2242   -0.2332    0.0000 C.2     1  UNL1        0.3353
     25 C           6.4745   -1.3297    0.0000 C.2     1  UNL1       -0.0884
     26 H           4.2219   -3.9076    0.0000 H       1  UNL1        0.0590
     27 H           4.8936   -3.2359    0.0000 H       1  UNL1        0.0590
     28 H           5.8312   -2.0096    0.0000 H       1  UNL1        0.0378
     29 H           5.4879    2.7156    0.0000 H       1  UNL1        0.0547
     30 H           6.4030    2.1401    0.0000 H       1  UNL1        0.0753
     31 H           4.1356    1.2069    0.0000 H       1  UNL1        0.0314
     32 H           4.8967    0.9183    0.0000 H       1  UNL1        0.0314
     33 H           3.5985    2.6954    0.0000 H       1  UNL1        0.0428
     34 H           3.6420    1.8826    0.0000 H       1  UNL1        0.0428
     35 H           3.7317    3.8964    0.0000 H       1  UNL1        0.0470
     36 H           3.0133    3.4817    0.0000 H       1  UNL1        0.0470
     37 H           2.1922   -1.9844    0.0000 H       1  UNL1        0.0264
     38 H           2.2686   -2.8578    0.0000 H       1  UNL1        0.0264
     39 H           3.1421   -2.7815    0.0000 H       1  UNL1        0.0264
     40 H           5.0999   -3.2360    0.0000 H       1  UNL1        0.0236
     41 H           5.9692   -3.3504    0.0000 H       1  UNL1        0.0236
     42 H           6.0837   -2.4811    0.0000 H       1  UNL1        0.0236
     43 H           2.5912    2.2543    0.0000 H       1  UNL1        0.0586
     44 H           4.1469    0.1324    0.0000 H       1  UNL1        0.0746
     45 H           4.5454    0.8227    0.0000 H       1  UNL1        0.0746
     46 H           2.0000   -1.0800    0.0000 H       1  UNL1        0.2110
     47 H           6.7117   -1.9025    0.0000 H       1  UNL1        0.0540
     48 H           6.8519   -0.8378    0.0000 H       1  UNL1        0.0540
@<TRIPOS>BOND
     1     1     8    1
     2     1     9    1
     3     2    13    1
     4     2    24    1
     5     3    10    1
     6     3    46    1
     7     4    21    1
     8     4    23    1
     9     5    21    2
    10     6    24    2
    11     7    12    1
    12     7    15    1
    13     7    17    1
    14     8     9    1
    15     8    10    1
    16     8    11    1
    17     9    26    1
    18     9    27    1
    19    10    19    1
    20    10    21    1
    21    11    18    1
    22    11    20    1
    23    11    28    1
    24    12    13    1
    25    12    16    1
    26    12    29    1
    27    13    14    1
    28    13    30    1
    29    14    15    1
    30    14    31    1
    31    14    32    1
    32    15    33    1
    33    15    34    1
    34    16    22    2
    35    16    23    1
    36    17    22    1
    37    17    35    1
    38    17    36    1
    39    18    24    1
    40    18    25    2
    41    19    37    1
    42    19    38    1
    43    19    39    1
    44    20    40    1
    45    20    41    1
    46    20    42    1
    47    22    43    1
    48    23    44    1
    49    23    45    1
    50    25    47    1
    51    25    48    1
