@<TRIPOS>MOLECULE
IMPHY015640
 40 39 0 0 0
SMALL
GASTEIGER

@<TRIPOS>ATOM
      1 O           2.5369   -0.8660    0.0000 O.3     1  UNL1       -0.3848
      2 O          10.3312   -1.3660    0.0000 O.2     1  UNL1       -0.2974
      3 C           4.2690    0.1340    0.0000 C.3     1  UNL1       -0.0206
      4 C           5.1350   -0.3660    0.0000 C.3     1  UNL1       -0.0499
      5 C           3.4030   -0.3660    0.0000 C.3     1  UNL1        0.0811
      6 C           6.0010    0.1340    0.0000 C.3     1  UNL1       -0.0495
      7 C           6.8671   -0.3660    0.0000 C.3     1  UNL1       -0.0345
      8 C           3.9030   -1.2320    0.0000 C.3     1  UNL1       -0.0325
      9 C           2.9030    0.5000    0.0000 C.2     1  UNL1       -0.0602
     10 C           7.7331    0.1340    0.0000 C.2     1  UNL1       -0.0846
     11 C           8.5991   -0.3660    0.0000 C.2     1  UNL1       -0.0695
     12 C           9.4651    0.1340    0.0000 C.3     1  UNL1        0.0264
     13 C           8.5991   -1.3660    0.0000 C.3     1  UNL1       -0.0434
     14 C           3.4030    1.3660    0.0000 C.2     1  UNL1       -0.1000
     15 C          10.3312   -0.3660    0.0000 C.2     1  UNL1        0.1343
     16 C          11.1972    0.1340    0.0000 C.3     1  UNL1       -0.0057
     17 H           4.6675    0.6089    0.0000 H       1  UNL1        0.0296
     18 H           3.8705    0.6089    0.0000 H       1  UNL1        0.0296
     19 H           4.7365   -0.8410    0.0000 H       1  UNL1        0.0266
     20 H           5.5335   -0.8410    0.0000 H       1  UNL1        0.0266
     21 H           6.3996    0.6089    0.0000 H       1  UNL1        0.0268
     22 H           5.6025    0.6089    0.0000 H       1  UNL1        0.0268
     23 H           6.4685   -0.8410    0.0000 H       1  UNL1        0.0307
     24 H           7.2656   -0.8410    0.0000 H       1  UNL1        0.0307
     25 H           3.3660   -1.5420    0.0000 H       1  UNL1        0.0260
     26 H           4.2130   -1.7690    0.0000 H       1  UNL1        0.0260
     27 H           4.4399   -0.9221    0.0000 H       1  UNL1        0.0260
     28 H           2.2830    0.5000    0.0000 H       1  UNL1        0.0594
     29 H           7.7331    0.7540    0.0000 H       1  UNL1        0.0572
     30 H           2.0000   -0.5560    0.0000 H       1  UNL1        0.2106
     31 H           9.8637    0.6089    0.0000 H       1  UNL1        0.0387
     32 H           9.0666    0.6089    0.0000 H       1  UNL1        0.0387
     33 H           7.9791   -1.3660    0.0000 H       1  UNL1        0.0274
     34 H           8.5991   -1.9860    0.0000 H       1  UNL1        0.0274
     35 H           9.2191   -1.3660    0.0000 H       1  UNL1        0.0274
     36 H           4.0230    1.3660    0.0000 H       1  UNL1        0.0533
     37 H           3.0930    1.9030    0.0000 H       1  UNL1        0.0533
     38 H          11.5072   -0.4030    0.0000 H       1  UNL1        0.0306
     39 H          11.7341    0.4440    0.0000 H       1  UNL1        0.0306
     40 H          10.8872    0.6709    0.0000 H       1  UNL1        0.0306
@<TRIPOS>BOND
     1     1     5    1
     2     1    30    1
     3     2    15    2
     4     3     4    1
     5     3     5    1
     6     3    17    1
     7     3    18    1
     8     4     6    1
     9     4    19    1
    10     4    20    1
    11     5     8    1
    12     5     9    1
    13     6     7    1
    14     6    21    1
    15     6    22    1
    16     7    10    1
    17     7    23    1
    18     7    24    1
    19     8    25    1
    20     8    26    1
    21     8    27    1
    22     9    14    2
    23     9    28    1
    24    10    11    2
    25    10    29    1
    26    11    12    1
    27    11    13    1
    28    12    15    1
    29    12    31    1
    30    12    32    1
    31    13    33    1
    32    13    34    1
    33    13    35    1
    34    14    36    1
    35    14    37    1
    36    15    16    1
    37    16    38    1
    38    16    39    1
    39    16    40    1
