@<TRIPOS>MOLECULE
IMPHY008131
 44 43 0 0 0
SMALL
GASTEIGER

@<TRIPOS>ATOM
      1 O           8.0622   -1.9400    0.0000 O.3     1  UNL1       -0.2299
      2 O           7.1962   -2.4400    0.0000 O.3     1  UNL1       -0.2496
      3 O          14.9904    1.0600    0.0000 O.3     1  UNL1       -0.3757
      4 C           5.4641   -0.4400    0.0000 C.3     1  UNL1       -0.0530
      5 C           6.3301   -0.9400    0.0000 C.3     1  UNL1       -0.0503
      6 C           4.5981   -0.9400    0.0000 C.3     1  UNL1       -0.0531
      7 C           7.1962   -0.4400    0.0000 C.3     1  UNL1       -0.0199
      8 C           3.7320   -0.4400    0.0000 C.3     1  UNL1       -0.0533
      9 C           8.0622   -0.9400    0.0000 C.3     1  UNL1        0.1125
     10 C           2.8660   -0.9400    0.0000 C.3     1  UNL1       -0.0559
     11 C           2.0000   -0.4400    0.0000 C.3     1  UNL1       -0.0653
     12 C           8.9282   -0.4400    0.0000 C.2     1  UNL1       -0.0444
     13 C           9.7942   -0.9400    0.0000 C.2     1  UNL1       -0.0120
     14 C          10.6603   -0.4400    0.0000 C.1     1  UNL1       -0.0605
     15 C          11.5263    0.0600    0.0000 C.1     1  UNL1       -0.0101
     16 C          12.3923    0.5600    0.0000 C.1     1  UNL1       -0.0116
     17 C          14.1244    1.5600    0.0000 C.3     1  UNL1        0.1348
     18 C          13.2583    1.0600    0.0000 C.1     1  UNL1       -0.0529
     19 C          14.1244    2.5600    0.0000 C.2     1  UNL1       -0.0510
     20 C          14.9904    3.0600    0.0000 C.2     1  UNL1       -0.0993
     21 H           5.8626    0.0349    0.0000 H       1  UNL1        0.0265
     22 H           5.0656    0.0349    0.0000 H       1  UNL1        0.0265
     23 H           5.9316   -1.4150    0.0000 H       1  UNL1        0.0266
     24 H           6.7287   -1.4150    0.0000 H       1  UNL1        0.0266
     25 H           4.1996   -1.4150    0.0000 H       1  UNL1        0.0265
     26 H           4.9966   -1.4150    0.0000 H       1  UNL1        0.0265
     27 H           7.5947    0.0349    0.0000 H       1  UNL1        0.0294
     28 H           6.7976    0.0349    0.0000 H       1  UNL1        0.0294
     29 H           4.1306    0.0349    0.0000 H       1  UNL1        0.0265
     30 H           3.3335    0.0349    0.0000 H       1  UNL1        0.0265
     31 H           7.5252   -1.2500    0.0000 H       1  UNL1        0.0672
     32 H           2.4675   -1.4150    0.0000 H       1  UNL1        0.0263
     33 H           3.2646   -1.4150    0.0000 H       1  UNL1        0.0263
     34 H           2.3100    0.0969    0.0000 H       1  UNL1        0.0230
     35 H           1.4631   -0.1300    0.0000 H       1  UNL1        0.0230
     36 H           1.6900   -0.9769    0.0000 H       1  UNL1        0.0230
     37 H           8.9282    0.1800    0.0000 H       1  UNL1        0.0605
     38 H           9.7942   -1.5600    0.0000 H       1  UNL1        0.0710
     39 H           7.1962   -3.0600    0.0000 H       1  UNL1        0.2531
     40 H          14.1244    0.9400    0.0000 H       1  UNL1        0.0777
     41 H          13.5874    2.8700    0.0000 H       1  UNL1        0.0601
     42 H          15.5273    1.3700    0.0000 H       1  UNL1        0.2114
     43 H          15.5273    2.7500    0.0000 H       1  UNL1        0.0533
     44 H          14.9904    3.6800    0.0000 H       1  UNL1        0.0533
@<TRIPOS>BOND
     1     1     2    1
     2     1     9    1
     3     2    39    1
     4     3    17    1
     5     3    42    1
     6     4     5    1
     7     4     6    1
     8     4    21    1
     9     4    22    1
    10     5     7    1
    11     5    23    1
    12     5    24    1
    13     6     8    1
    14     6    25    1
    15     6    26    1
    16     7     9    1
    17     7    27    1
    18     7    28    1
    19     8    10    1
    20     8    29    1
    21     8    30    1
    22     9    12    1
    23     9    31    1
    24    10    11    1
    25    10    32    1
    26    10    33    1
    27    11    34    1
    28    11    35    1
    29    11    36    1
    30    12    13    2
    31    12    37    1
    32    13    14    1
    33    13    38    1
    34    14    15    3
    35    15    16    1
    36    16    18    3
    37    17    18    1
    38    17    19    1
    39    17    40    1
    40    19    20    2
    41    19    41    1
    42    20    43    1
    43    20    44    1
