@<TRIPOS>MOLECULE
IMPHY012222
 100 107 0 0 0
SMALL
GASTEIGER

@<TRIPOS>ATOM
      1 O          10.4454    3.5141    0.0000 O.3     1  UNL1       -0.4601
      2 O           6.8671   -3.5141    0.0000 O.3     1  UNL1       -0.4601
      3 O          12.1774    3.5141    0.0000 O.3     1  UNL1       -0.3313
      4 O           5.1350   -3.5141    0.0000 O.3     1  UNL1       -0.3313
      5 O          10.4454    5.5141    0.0000 O.3     1  UNL1       -0.3829
      6 O           6.8671   -5.5141    0.0000 O.3     1  UNL1       -0.3829
      7 O          12.1774    6.5141    0.0000 O.3     1  UNL1       -0.3864
      8 O           5.1350   -6.5141    0.0000 O.3     1  UNL1       -0.3864
      9 O          13.9095    5.5141    0.0000 O.3     1  UNL1       -0.3865
     10 O           3.4030   -5.5141    0.0000 O.3     1  UNL1       -0.3865
     11 O           8.6967    3.4998    0.0000 O.2     1  UNL1       -0.2864
     12 O           8.6158   -3.4998    0.0000 O.2     1  UNL1       -0.2864
     13 O           6.9488    3.5546    0.0000 O.3     1  UNL1       -0.5060
     14 O          10.3636   -3.5546    0.0000 O.3     1  UNL1       -0.5060
     15 O          14.7755    4.0141    0.0000 O.3     1  UNL1       -0.3924
     16 O           2.5369   -4.0141    0.0000 O.3     1  UNL1       -0.3924
     17 O           4.2697    1.0233    0.0000 O.3     1  UNL1       -0.4771
     18 O          13.0428   -1.0233    0.0000 O.3     1  UNL1       -0.4771
     19 O           5.1241   -0.4833    0.0000 O.2     1  UNL1       -0.2451
     20 O          12.1883    0.4833    0.0000 O.2     1  UNL1       -0.2451
     21 C           8.6620    0.5000    0.0000 C.3     1  UNL1        0.0217
     22 C           8.6504   -0.5000    0.0000 C.3     1  UNL1        0.0217
     23 C           9.5338    0.9899    0.0000 C.ar    1  UNL1       -0.0247
     24 C           7.7787   -0.9899    0.0000 C.ar    1  UNL1       -0.0247
     25 C           7.8018    1.0099    0.0000 C.ar    1  UNL1       -0.0240
     26 C           9.5106   -1.0099    0.0000 C.ar    1  UNL1       -0.0240
     27 C           9.5453    1.9898    0.0000 C.ar    1  UNL1        0.0679
     28 C           7.7671   -1.9898    0.0000 C.ar    1  UNL1        0.0679
     29 C           7.8134    2.0099    0.0000 C.ar    1  UNL1        0.0675
     30 C           9.4991   -2.0099    0.0000 C.ar    1  UNL1        0.0675
     31 C           8.6851    2.4998    0.0000 C.2     1  UNL1        0.2007
     32 C           8.6273   -2.4998    0.0000 C.2     1  UNL1        0.2007
     33 C          11.3114    5.0141    0.0000 C.3     1  UNL1        0.1454
     34 C           6.0010   -5.0141    0.0000 C.3     1  UNL1        0.1454
     35 C          11.3114    4.0141    0.0000 C.3     1  UNL1        0.2308
     36 C           6.0010   -4.0141    0.0000 C.3     1  UNL1        0.2308
     37 C          12.1774    5.5141    0.0000 C.3     1  UNL1        0.1152
     38 C           5.1350   -5.5141    0.0000 C.3     1  UNL1        0.1152
     39 C          13.0435    5.0141    0.0000 C.3     1  UNL1        0.1120
     40 C           4.2690   -5.0141    0.0000 C.3     1  UNL1        0.1120
     41 C          10.4454    2.5141    0.0000 C.ar    1  UNL1        0.1351
     42 C           6.8671   -2.5141    0.0000 C.ar    1  UNL1        0.1351
     43 C          10.4215    0.4450    0.0000 C.ar    1  UNL1       -0.0571
     44 C           6.8910   -0.4450    0.0000 C.ar    1  UNL1       -0.0571
     45 C          13.0435    4.0141    0.0000 C.3     1  UNL1        0.1140
     46 C           4.2690   -4.0141    0.0000 C.3     1  UNL1        0.1140
     47 C           6.9018    0.4857    0.0000 C.ar    1  UNL1       -0.0431
     48 C          10.4107   -0.4857    0.0000 C.ar    1  UNL1       -0.0431
     49 C           6.9257    2.5548    0.0000 C.ar    1  UNL1        0.1287
     50 C          10.3868   -2.5548    0.0000 C.ar    1  UNL1        0.1287
     51 C          11.3454    1.9898    0.0000 C.ar    1  UNL1       -0.0191
     52 C           5.9670   -1.9898    0.0000 C.ar    1  UNL1       -0.0191
     53 C          11.3334    0.9483    0.0000 C.ar    1  UNL1       -0.0580
     54 C           5.9790   -0.9483    0.0000 C.ar    1  UNL1       -0.0580
     55 C           6.0017    1.0099    0.0000 C.ar    1  UNL1        0.0626
     56 C          11.3108   -1.0099    0.0000 C.ar    1  UNL1        0.0626
     57 C           6.0137    2.0515    0.0000 C.ar    1  UNL1       -0.0055
     58 C          11.2987   -2.0515    0.0000 C.ar    1  UNL1       -0.0055
     59 C          13.9095    3.5141    0.0000 C.3     1  UNL1        0.0731
     60 C           3.4030   -3.5141    0.0000 C.3     1  UNL1        0.0731
     61 C           5.1318    0.5166    0.0000 C.2     1  UNL1        0.3369
     62 C          12.1806   -0.5166    0.0000 C.2     1  UNL1        0.3369
     63 H           9.3932    0.0665    0.0000 H       1  UNL1        0.0407
     64 H           7.9193   -0.0665    0.0000 H       1  UNL1        0.0407
     65 H          10.7745    4.7041    0.0000 H       1  UNL1        0.0683
     66 H           6.0010   -5.6341    0.0000 H       1  UNL1        0.0683
     67 H          11.3114    3.3941    0.0000 H       1  UNL1        0.1084
     68 H           6.5380   -4.3241    0.0000 H       1  UNL1        0.1084
     69 H          11.6405    5.8241    0.0000 H       1  UNL1        0.0648
     70 H           4.5981   -5.8241    0.0000 H       1  UNL1        0.0648
     71 H          13.0435    5.6341    0.0000 H       1  UNL1        0.0647
     72 H           4.2690   -5.6341    0.0000 H       1  UNL1        0.0647
     73 H          13.0435    3.3941    0.0000 H       1  UNL1        0.0647
     74 H           4.2690   -3.3941    0.0000 H       1  UNL1        0.0647
     75 H          10.4071   -0.1749    0.0000 H       1  UNL1        0.0621
     76 H           6.9053    0.1749    0.0000 H       1  UNL1        0.0621
     77 H           6.9018   -0.1343    0.0000 H       1  UNL1        0.0629
     78 H          10.4107    0.1343    0.0000 H       1  UNL1        0.0629
     79 H          11.8848    2.2957    0.0000 H       1  UNL1        0.0654
     80 H           5.4277   -2.2957    0.0000 H       1  UNL1        0.0654
     81 H          11.8655    0.6300    0.0000 H       1  UNL1        0.0619
     82 H           5.4470   -0.6300    0.0000 H       1  UNL1        0.0619
     83 H           5.4816    2.3697    0.0000 H       1  UNL1        0.0662
     84 H          11.8308   -2.3697    0.0000 H       1  UNL1        0.0662
     85 H          13.5110    3.0392    0.0000 H       1  UNL1        0.0584
     86 H          14.3080    3.0392    0.0000 H       1  UNL1        0.0584
     87 H           3.8015   -3.0392    0.0000 H       1  UNL1        0.0584
     88 H           3.0044   -3.0392    0.0000 H       1  UNL1        0.0584
     89 H          10.4454    6.1341    0.0000 H       1  UNL1        0.2102
     90 H           6.8671   -6.1341    0.0000 H       1  UNL1        0.2102
     91 H          12.7144    6.8241    0.0000 H       1  UNL1        0.2100
     92 H           4.5981   -6.8241    0.0000 H       1  UNL1        0.2100
     93 H          13.9095    6.1341    0.0000 H       1  UNL1        0.2100
     94 H           3.4030   -6.1341    0.0000 H       1  UNL1        0.2100
     95 H           6.4192    3.8769    0.0000 H       1  UNL1        0.2922
     96 H          10.8933   -3.8769    0.0000 H       1  UNL1        0.2922
     97 H          15.3124    3.7041    0.0000 H       1  UNL1        0.2095
     98 H           2.0000   -3.7041    0.0000 H       1  UNL1        0.2095
     99 H           4.2745    1.6433    0.0000 H       1  UNL1        0.2954
    100 H          13.5821   -0.7174    0.0000 H       1  UNL1        0.2954
@<TRIPOS>BOND
     1    35     1    1
     2     1    41    1
     3    36     2    1
     4     2    42    1
     5     3    35    1
     6     3    45    1
     7     4    36    1
     8     4    46    1
     9    33     5    1
    10     5    89    1
    11    34     6    1
    12     6    90    1
    13    37     7    1
    14     7    91    1
    15    38     8    1
    16     8    92    1
    17    39     9    1
    18     9    93    1
    19    40    10    1
    20    10    94    1
    21    11    31    2
    22    12    32    2
    23    13    49    1
    24    13    95    1
    25    14    50    1
    26    14    96    1
    27    15    59    1
    28    15    97    1
    29    16    60    1
    30    16    98    1
    31    17    61    1
    32    17    99    1
    33    18    62    1
    34    18   100    1
    35    19    61    2
    36    20    62    2
    37    21    22    1
    38    21    23    1
    39    21    25    1
    40    21    63    1
    41    22    24    1
    42    22    26    1
    43    22    64    1
    44    23    27   ar
    45    23    43   ar
    46    24    28   ar
    47    24    44   ar
    48    25    29   ar
    49    25    47   ar
    50    26    30   ar
    51    26    48   ar
    52    27    31    1
    53    27    41   ar
    54    28    32    1
    55    28    42   ar
    56    29    31    1
    57    29    49   ar
    58    30    32    1
    59    30    50   ar
    60    33    35    1
    61    33    37    1
    62    33    65    1
    63    34    36    1
    64    34    38    1
    65    34    66    1
    66    35    67    1
    67    36    68    1
    68    37    39    1
    69    37    69    1
    70    38    40    1
    71    38    70    1
    72    39    45    1
    73    39    71    1
    74    40    46    1
    75    40    72    1
    76    41    51   ar
    77    42    52   ar
    78    43    53   ar
    79    43    75    1
    80    44    54   ar
    81    44    76    1
    82    45    59    1
    83    45    73    1
    84    46    60    1
    85    46    74    1
    86    47    55   ar
    87    47    77    1
    88    48    56   ar
    89    48    78    1
    90    49    57   ar
    91    50    58   ar
    92    51    53   ar
    93    51    79    1
    94    52    54   ar
    95    52    80    1
    96    53    81    1
    97    54    82    1
    98    55    57   ar
    99    55    61    1
   100    56    58   ar
   101    56    62    1
   102    57    83    1
   103    58    84    1
   104    59    85    1
   105    59    86    1
   106    60    87    1
   107    60    88    1
