@<TRIPOS>MOLECULE
IMPHY004743
 72 76 0 0 0
SMALL
GASTEIGER

@<TRIPOS>ATOM
      1 O           5.1350   -3.5289    0.0000 O.3     1  UNL1       -0.3313
      2 O          11.2384    4.0235    0.0000 O.3     1  UNL1       -0.3313
      3 O           6.8671   -3.5289    0.0000 O.3     1  UNL1       -0.4606
      4 O           5.1350   -6.5289    0.0000 O.3     1  UNL1       -0.3864
      5 O           3.4030   -5.5289    0.0000 O.3     1  UNL1       -0.3865
      6 O          12.1141    6.5202    0.0000 O.3     1  UNL1       -0.3865
      7 O          13.8423    5.5135    0.0000 O.3     1  UNL1       -0.3864
      8 O          12.0987    2.5202    0.0000 O.3     1  UNL1       -0.4608
      9 O           6.8671   -5.5289    0.0000 O.3     1  UNL1       -0.3829
     10 O          13.8346    3.5135    0.0000 O.3     1  UNL1       -0.3829
     11 O           2.5369   -4.0289    0.0000 O.3     1  UNL1       -0.3924
     12 O          10.3820    6.5269    0.0000 O.3     1  UNL1       -0.3924
     13 O           8.6230   -0.4664    0.0000 O.2     1  UNL1       -0.4544
     14 O           5.1208   -0.4498    0.0000 O.3     1  UNL1       -0.5058
     15 O           6.0308    1.0436    0.0000 O.2     1  UNL1       -0.2869
     16 C           4.2690   -5.0289    0.0000 C.3     1  UNL1        0.1120
     17 C           5.1350   -5.5289    0.0000 C.3     1  UNL1        0.1152
     18 C          12.1102    5.5202    0.0000 C.3     1  UNL1        0.1120
     19 C          12.9743    5.0168    0.0000 C.3     1  UNL1        0.1152
     20 C           4.2690   -4.0289    0.0000 C.3     1  UNL1        0.1140
     21 C           6.0010   -5.0289    0.0000 C.3     1  UNL1        0.1454
     22 C          11.2423    5.0235    0.0000 C.3     1  UNL1        0.1140
     23 C          12.9705    4.0169    0.0000 C.3     1  UNL1        0.1454
     24 C           6.0010   -4.0289    0.0000 C.3     1  UNL1        0.2308
     25 C          12.1025    3.5202    0.0000 C.3     1  UNL1        0.2308
     26 C           3.4030   -3.5289    0.0000 C.3     1  UNL1        0.0731
     27 C          10.3782    5.5269    0.0000 C.3     1  UNL1        0.0731
     28 C           6.8671   -2.5289    0.0000 C.ar    1  UNL1        0.1310
     29 C          11.2307    2.0236    0.0000 C.ar    1  UNL1        0.1240
     30 C           7.7671   -2.0046    0.0000 C.ar    1  UNL1        0.0235
     31 C           5.9670   -2.0046    0.0000 C.ar    1  UNL1        0.0226
     32 C           7.7551   -0.9631    0.0000 C.ar    1  UNL1        0.1462
     33 C          10.3666    2.5269    0.0000 C.ar    1  UNL1       -0.0192
     34 C          11.2269    1.0236    0.0000 C.ar    1  UNL1       -0.0192
     35 C           6.8910   -0.4597    0.0000 C.ar    1  UNL1        0.1055
     36 C           5.9790   -0.9631    0.0000 C.ar    1  UNL1        0.1347
     37 C           9.4948    1.0302    0.0000 C.ar    1  UNL1        0.0176
     38 C           8.6269    0.5336    0.0000 C.ar    1  UNL1        0.1392
     39 C           9.4987    2.0302    0.0000 C.ar    1  UNL1       -0.0476
     40 C          10.3589    0.5269    0.0000 C.ar    1  UNL1       -0.0476
     41 C           6.8948    0.5403    0.0000 C.ar    1  UNL1        0.1966
     42 C           7.7628    1.0369    0.0000 C.ar    1  UNL1        0.0288
     43 H           4.2690   -5.6489    0.0000 H       1  UNL1        0.0647
     44 H           5.6720   -5.8389    0.0000 H       1  UNL1        0.0648
     45 H          11.5745    5.8322    0.0000 H       1  UNL1        0.0647
     46 H          12.9767    5.6368    0.0000 H       1  UNL1        0.0648
     47 H           4.2690   -3.4089    0.0000 H       1  UNL1        0.0647
     48 H           6.5380   -4.7189    0.0000 H       1  UNL1        0.0683
     49 H          10.7042    4.7156    0.0000 H       1  UNL1        0.0647
     50 H          13.5086    4.3248    0.0000 H       1  UNL1        0.0683
     51 H           6.0010   -3.4089    0.0000 H       1  UNL1        0.1084
     52 H          12.6383    3.2081    0.0000 H       1  UNL1        0.1084
     53 H           3.8015   -3.0540    0.0000 H       1  UNL1        0.0584
     54 H           3.0044   -3.0540    0.0000 H       1  UNL1        0.0584
     55 H           9.7680    5.6369    0.0000 H       1  UNL1        0.0584
     56 H          10.1639    4.9451    0.0000 H       1  UNL1        0.0584
     57 H           4.5981   -6.8389    0.0000 H       1  UNL1        0.2100
     58 H           3.4030   -6.1489    0.0000 H       1  UNL1        0.2100
     59 H          12.6522    6.8281    0.0000 H       1  UNL1        0.2100
     60 H          13.8447    6.1335    0.0000 H       1  UNL1        0.2100
     61 H           6.8671   -6.1489    0.0000 H       1  UNL1        0.2102
     62 H          14.3727    3.8214    0.0000 H       1  UNL1        0.2102
     63 H           2.0000   -3.7189    0.0000 H       1  UNL1        0.2095
     64 H           9.8463    6.8389    0.0000 H       1  UNL1        0.2095
     65 H           8.3064   -2.3105    0.0000 H       1  UNL1        0.0691
     66 H           5.4277   -2.3105    0.0000 H       1  UNL1        0.0691
     67 H          10.3690    3.1469    0.0000 H       1  UNL1        0.0654
     68 H          11.7626    0.7115    0.0000 H       1  UNL1        0.0654
     69 H           8.9630    2.3423    0.0000 H       1  UNL1        0.0626
     70 H          10.3565   -0.0931    0.0000 H       1  UNL1        0.0626
     71 H           7.7652    1.6569    0.0000 H       1  UNL1        0.0693
     72 H           4.5792   -0.7515    0.0000 H       1  UNL1        0.2922
@<TRIPOS>BOND
     1     1    20    1
     2     1    24    1
     3     2    22    1
     4     2    25    1
     5    24     3    1
     6     3    28    1
     7     4    17    1
     8     4    57    1
     9    16     5    1
    10     5    58    1
    11    18     6    1
    12     6    59    1
    13     7    19    1
    14     7    60    1
    15    25     8    1
    16     8    29    1
    17     9    21    1
    18     9    61    1
    19    10    23    1
    20    10    62    1
    21    11    26    1
    22    11    63    1
    23    12    27    1
    24    12    64    1
    25    13    32   ar
    26    13    38   ar
    27    14    36    1
    28    14    72    1
    29    15    41    2
    30    16    17    1
    31    16    20    1
    32    16    43    1
    33    17    21    1
    34    17    44    1
    35    18    19    1
    36    18    22    1
    37    18    45    1
    38    19    23    1
    39    19    46    1
    40    20    26    1
    41    20    47    1
    42    21    24    1
    43    21    48    1
    44    22    27    1
    45    22    49    1
    46    23    25    1
    47    23    50    1
    48    24    51    1
    49    25    52    1
    50    26    53    1
    51    26    54    1
    52    27    55    1
    53    27    56    1
    54    28    30   ar
    55    28    31   ar
    56    29    33   ar
    57    29    34   ar
    58    30    32   ar
    59    30    65    1
    60    31    36   ar
    61    31    66    1
    62    32    35   ar
    63    33    39   ar
    64    33    67    1
    65    34    40   ar
    66    34    68    1
    67    35    36   ar
    68    35    41   ar
    69    37    38    1
    70    37    39   ar
    71    37    40   ar
    72    38    42   ar
    73    39    69    1
    74    40    70    1
    75    41    42   ar
    76    42    71    1
