@<TRIPOS>MOLECULE
IMPHY007764
 41 43 0 0 0
SMALL
GASTEIGER

@<TRIPOS>ATOM
      1 O           6.3981   -0.7123    0.0000 O.2     1  UNL1       -0.4507
      2 O           4.6497    2.3223    0.0000 O.3     1  UNL1       -0.4905
      3 O           2.8680    1.3119    0.0000 O.3     1  UNL1       -0.4885
      4 O           2.8680   -0.7364    0.0000 O.3     1  UNL1       -0.4912
      5 O           8.1301    1.2877    0.0000 O.3     1  UNL1       -0.5007
      6 O           6.3981    2.2877    0.0000 O.2     1  UNL1       -0.2830
      7 O          10.7282   -2.2123    0.0000 O.3     1  UNL1       -0.5068
      8 C           5.5320    0.7877    0.0000 C.ar    1  UNL1        0.1130
      9 C           5.5320   -0.2123    0.0000 C.ar    1  UNL1        0.1468
     10 C           4.6381    1.3224    0.0000 C.ar    1  UNL1        0.1797
     11 C           7.2641   -0.2123    0.0000 C.ar    1  UNL1        0.1806
     12 C           6.3981    1.2877    0.0000 C.ar    1  UNL1        0.2380
     13 C           3.7320    0.8085    0.0000 C.ar    1  UNL1        0.2045
     14 C           4.6381   -0.7469    0.0000 C.ar    1  UNL1        0.0270
     15 C           7.2641    0.7877    0.0000 C.ar    1  UNL1        0.2082
     16 C           3.7320   -0.2331    0.0000 C.ar    1  UNL1        0.1687
     17 C           8.1301   -0.7123    0.0000 C.ar    1  UNL1        0.0213
     18 C           8.1301   -1.7123    0.0000 C.ar    1  UNL1       -0.0475
     19 C           8.9962   -0.2123    0.0000 C.ar    1  UNL1       -0.0475
     20 C           8.9962   -2.2123    0.0000 C.ar    1  UNL1       -0.0195
     21 C           9.8622   -0.7123    0.0000 C.ar    1  UNL1       -0.0195
     22 C           9.8622   -1.7123    0.0000 C.ar    1  UNL1        0.1169
     23 C           3.7895    2.8323    0.0000 C.3     1  UNL1        0.0790
     24 C           2.0000    0.8152    0.0000 C.3     1  UNL1        0.0791
     25 C           2.8718   -1.7364    0.0000 C.3     1  UNL1        0.0790
     26 H           4.6453   -1.3669    0.0000 H       1  UNL1        0.0692
     27 H           7.5932   -2.0223    0.0000 H       1  UNL1        0.0626
     28 H           8.9962    0.4077    0.0000 H       1  UNL1        0.0626
     29 H           8.9962   -2.8323    0.0000 H       1  UNL1        0.0654
     30 H          10.3991   -0.4023    0.0000 H       1  UNL1        0.0654
     31 H           8.1301    1.9077    0.0000 H       1  UNL1        0.2924
     32 H           4.1057    3.3656    0.0000 H       1  UNL1        0.0660
     33 H           3.2562    3.1485    0.0000 H       1  UNL1        0.0660
     34 H           3.4733    2.2990    0.0000 H       1  UNL1        0.0660
     35 H           1.6921    1.3533    0.0000 H       1  UNL1        0.0660
     36 H           1.4619    0.5073    0.0000 H       1  UNL1        0.0660
     37 H           2.3079    0.2771    0.0000 H       1  UNL1        0.0660
     38 H           2.2518   -1.7388    0.0000 H       1  UNL1        0.0660
     39 H           2.8742   -2.3564    0.0000 H       1  UNL1        0.0660
     40 H           3.4918   -1.7340    0.0000 H       1  UNL1        0.0660
     41 H          10.7282   -2.8323    0.0000 H       1  UNL1        0.2921
@<TRIPOS>BOND
     1     1     9   ar
     2     1    11   ar
     3     2    10    1
     4     2    23    1
     5     3    13    1
     6     3    24    1
     7     4    16    1
     8     4    25    1
     9     5    15    1
    10     5    31    1
    11     6    12    2
    12     7    22    1
    13     7    41    1
    14     8     9   ar
    15     8    10   ar
    16     8    12   ar
    17     9    14   ar
    18    10    13   ar
    19    11    15   ar
    20    11    17    1
    21    12    15   ar
    22    13    16   ar
    23    14    16   ar
    24    14    26    1
    25    17    18   ar
    26    17    19   ar
    27    18    20   ar
    28    18    27    1
    29    19    21   ar
    30    19    28    1
    31    20    22   ar
    32    20    29    1
    33    21    22   ar
    34    21    30    1
    35    23    32    1
    36    23    33    1
    37    23    34    1
    38    24    35    1
    39    24    36    1
    40    24    37    1
    41    25    38    1
    42    25    39    1
    43    25    40    1
