@<TRIPOS>MOLECULE
IMPHY002660
 53 57 0 0 0
SMALL
GASTEIGER

@<TRIPOS>ATOM
      1 O           2.9180    0.8177    0.0000 O.3     1  UNL1       -0.4802
      2 O           2.0000   -1.7308    0.0000 O.3     1  UNL1       -0.4877
      3 O           4.6501   -1.1823    0.0000 O.3     1  UNL1       -0.3728
      4 O           4.6744    3.9719    0.0000 O.3     1  UNL1       -0.4814
      5 O           5.6349   -0.3560    0.0000 O.2     1  UNL1       -0.2882
      6 O           6.4203    0.8146    0.0000 O.3     1  UNL1       -0.5058
      7 O           5.6405   -3.8193    0.0000 O.3     1  UNL1       -0.4914
      8 O           3.8372   -4.8790    0.0000 O.3     1  UNL1       -0.4913
      9 C           3.7841   -0.6823    0.0000 C.3     1  UNL1        0.1969
     10 C           2.9180   -0.1823    0.0000 C.3     1  UNL1        0.1739
     11 C           3.8001   -1.7238    0.0000 C.ar    1  UNL1        0.0405
     12 C           2.0080   -0.6892    0.0000 C.3     1  UNL1        0.1299
     13 C           4.6501   -0.1823    0.0000 C.2     1  UNL1        0.2099
     14 C           4.6501    0.8177    0.0000 C.ar    1  UNL1        0.1045
     15 C           3.7841    1.3177    0.0000 C.ar    1  UNL1        0.1459
     16 C           2.9021   -2.2516    0.0000 C.ar    1  UNL1        0.1308
     17 C           3.7680    2.3592    0.0000 C.ar    1  UNL1        0.0591
     18 C           4.7520   -2.2444    0.0000 C.ar    1  UNL1       -0.0064
     19 C           4.6660    2.8870    0.0000 C.ar    1  UNL1        0.1359
     20 C           5.5601    1.3245    0.0000 C.ar    1  UNL1        0.1345
     21 C           3.7348    4.5144    0.0000 C.3     1  UNL1        0.1235
     22 C           2.8937   -3.3365    0.0000 C.ar    1  UNL1        0.0258
     23 C           5.5681    2.3661    0.0000 C.ar    1  UNL1        0.0231
     24 C           2.8161    2.8798    0.0000 C.2     1  UNL1       -0.0478
     25 C           4.7688   -3.3293    0.0000 C.ar    1  UNL1        0.1621
     26 C           2.7993    3.9647    0.0000 C.2     1  UNL1       -0.0408
     27 C           3.8334   -3.8790    0.0000 C.ar    1  UNL1        0.1650
     28 C           3.2314    5.3785    0.0000 C.3     1  UNL1       -0.0215
     29 C           4.2314    5.3824    0.0000 C.3     1  UNL1       -0.0215
     30 C           5.6521   -4.8192    0.0000 C.3     1  UNL1        0.0790
     31 C           2.9731   -5.3824    0.0000 C.3     1  UNL1        0.0790
     32 H           2.1852    0.2484    0.0000 H       1  UNL1        0.0805
     33 H           1.8035   -0.1039    0.0000 H       1  UNL1        0.0735
     34 H           1.3964   -0.7905    0.0000 H       1  UNL1        0.0735
     35 H           5.2829   -1.9242    0.0000 H       1  UNL1        0.0660
     36 H           5.2327   -1.3945    0.0000 H       1  UNL1        0.2114
     37 H           2.3556   -3.6445    0.0000 H       1  UNL1        0.0692
     38 H           6.1062    2.6741    0.0000 H       1  UNL1        0.0691
     39 H           2.2852    2.5595    0.0000 H       1  UNL1        0.0624
     40 H           2.2589    4.2685    0.0000 H       1  UNL1        0.0611
     41 H           3.7672    5.6906    0.0000 H       1  UNL1        0.0271
     42 H           2.9194    5.9142    0.0000 H       1  UNL1        0.0271
     43 H           2.6957    5.0664    0.0000 H       1  UNL1        0.0271
     44 H           4.7696    5.0744    0.0000 H       1  UNL1        0.0271
     45 H           4.5394    5.9205    0.0000 H       1  UNL1        0.0271
     46 H           3.6933    5.6903    0.0000 H       1  UNL1        0.0271
     47 H           6.9608    1.1183    0.0000 H       1  UNL1        0.2922
     48 H           5.0321   -4.8264    0.0000 H       1  UNL1        0.0660
     49 H           5.6592   -5.4392    0.0000 H       1  UNL1        0.0660
     50 H           6.2720   -4.8120    0.0000 H       1  UNL1        0.0660
     51 H           2.6610   -4.8466    0.0000 H       1  UNL1        0.0660
     52 H           2.4374   -5.6944    0.0000 H       1  UNL1        0.0660
     53 H           3.2852   -5.9181    0.0000 H       1  UNL1        0.0660
@<TRIPOS>BOND
     1     1    10    1
     2     1    15    1
     3     2    12    1
     4     2    16    1
     5     9     3    1
     6     3    36    1
     7     4    19    1
     8     4    21    1
     9     5    13    2
    10     6    20    1
    11     6    47    1
    12     7    25    1
    13     7    30    1
    14     8    27    1
    15     8    31    1
    16     9    10    1
    17     9    11    1
    18     9    13    1
    19    10    12    1
    20    10    32    1
    21    11    16   ar
    22    11    18   ar
    23    12    33    1
    24    12    34    1
    25    13    14    1
    26    14    15   ar
    27    14    20   ar
    28    15    17   ar
    29    16    22   ar
    30    17    19   ar
    31    17    24    1
    32    18    25   ar
    33    18    35    1
    34    19    23   ar
    35    20    23   ar
    36    21    26    1
    37    21    28    1
    38    21    29    1
    39    22    27   ar
    40    22    37    1
    41    23    38    1
    42    24    26    2
    43    24    39    1
    44    25    27   ar
    45    26    40    1
    46    28    41    1
    47    28    42    1
    48    28    43    1
    49    29    44    1
    50    29    45    1
    51    29    46    1
    52    30    48    1
    53    30    49    1
    54    30    50    1
    55    31    51    1
    56    31    52    1
    57    31    53    1
