@<TRIPOS>MOLECULE
IMPHY011830
 24 24 0 0 0
SMALL
GASTEIGER

@<TRIPOS>ATOM
      1 O           2.0000    1.0950    0.0000 O.3     1  UNL1       -0.3856
      2 N           3.7320    2.0950    0.0000 N.3     1  UNL1       -0.3251
      3 C           2.8660    0.5950    0.0000 C.3     1  UNL1        0.0950
      4 C           3.7320    1.0950    0.0000 C.3     1  UNL1        0.0324
      5 C           2.8660   -0.4050    0.0000 C.ar    1  UNL1       -0.0177
      6 C           4.5981    0.5950    0.0000 C.3     1  UNL1       -0.0472
      7 C           2.0000   -0.9050    0.0000 C.ar    1  UNL1       -0.0561
      8 C           3.7320   -0.9050    0.0000 C.ar    1  UNL1       -0.0561
      9 C           2.0000   -1.9050    0.0000 C.ar    1  UNL1       -0.0614
     10 C           3.7320   -1.9050    0.0000 C.ar    1  UNL1       -0.0614
     11 C           2.8660   -2.4050    0.0000 C.ar    1  UNL1       -0.0617
     12 H           2.8660    1.2150    0.0000 H       1  UNL1        0.0659
     13 H           4.2690    1.4050    0.0000 H       1  UNL1        0.0484
     14 H           4.2881    0.0581    0.0000 H       1  UNL1        0.0246
     15 H           5.1350    0.2850    0.0000 H       1  UNL1        0.0246
     16 H           4.9081    1.1319    0.0000 H       1  UNL1        0.0246
     17 H           1.4631   -0.5950    0.0000 H       1  UNL1        0.0621
     18 H           4.2690   -0.5950    0.0000 H       1  UNL1        0.0621
     19 H           4.2690    2.4050    0.0000 H       1  UNL1        0.1185
     20 H           3.1951    2.4050    0.0000 H       1  UNL1        0.1185
     21 H           2.0000    1.7150    0.0000 H       1  UNL1        0.2103
     22 H           1.4631   -2.2150    0.0000 H       1  UNL1        0.0618
     23 H           4.2690   -2.2150    0.0000 H       1  UNL1        0.0618
     24 H           2.8660   -3.0250    0.0000 H       1  UNL1        0.0618
@<TRIPOS>BOND
     1     3     1    1
     2     1    21    1
     3     4     2    1
     4     2    19    1
     5     2    20    1
     6     3     4    1
     7     3     5    1
     8     3    12    1
     9     4     6    1
    10     4    13    1
    11     5     7   ar
    12     5     8   ar
    13     6    14    1
    14     6    15    1
    15     6    16    1
    16     7     9   ar
    17     7    17    1
    18     8    10   ar
    19     8    18    1
    20     9    11   ar
    21     9    22    1
    22    10    11   ar
    23    10    23    1
    24    11    24    1
