@<TRIPOS>MOLECULE
IMPHY006455
 41 43 0 0 0
SMALL
GASTEIGER

@<TRIPOS>ATOM
      1 O           7.2764   -1.6887    0.0000 O.2     1  UNL1       -0.4547
      2 O           3.7320   -1.8840    0.0000 O.3     1  UNL1       -0.5064
      3 O          10.8600   -2.6160    0.0000 O.3     1  UNL1       -0.5066
      4 O          10.8600    0.8481    0.0000 O.3     1  UNL1       -0.5066
      5 C           6.3301   -0.3840    0.0000 C.ar    1  UNL1        0.0213
      6 C           4.5981   -0.3840    0.0000 C.ar    1  UNL1       -0.0014
      7 C           6.3301   -1.3840    0.0000 C.ar    1  UNL1        0.1392
      8 C           5.4641    0.1160    0.0000 C.ar    1  UNL1       -0.0440
      9 C           3.7320    0.1160    0.0000 C.3     1  UNL1       -0.0058
     10 C           7.8600   -0.8840    0.0000 C.ar    1  UNL1        0.1365
     11 C           7.2764   -0.0792    0.0000 C.ar    1  UNL1       -0.0081
     12 C           4.5981   -1.3840    0.0000 C.ar    1  UNL1        0.1238
     13 C           5.4641   -1.8840    0.0000 C.ar    1  UNL1        0.0230
     14 C           8.8600   -0.8840    0.0000 C.ar    1  UNL1        0.0242
     15 C           3.7320    1.1160    0.0000 C.2     1  UNL1       -0.0809
     16 C           2.8660    1.6160    0.0000 C.2     1  UNL1       -0.0793
     17 C           9.3600   -0.0179    0.0000 C.ar    1  UNL1       -0.0093
     18 C           9.3600   -1.7500    0.0000 C.ar    1  UNL1       -0.0093
     19 C          10.3600   -1.7500    0.0000 C.ar    1  UNL1        0.1210
     20 C          10.3600   -0.0179    0.0000 C.ar    1  UNL1        0.1210
     21 C          10.8600   -0.8840    0.0000 C.ar    1  UNL1        0.0213
     22 C           2.8660    2.6160    0.0000 C.3     1  UNL1       -0.0440
     23 C           2.0000    1.1160    0.0000 C.3     1  UNL1       -0.0440
     24 H           5.4641    0.7360    0.0000 H       1  UNL1        0.0629
     25 H           3.1215    0.2237    0.0000 H       1  UNL1        0.0357
     26 H           3.5200   -0.4666    0.0000 H       1  UNL1        0.0357
     27 H           7.4690    0.5101    0.0000 H       1  UNL1        0.0661
     28 H           5.4641   -2.5040    0.0000 H       1  UNL1        0.0691
     29 H           4.2690    1.4260    0.0000 H       1  UNL1        0.0575
     30 H           9.0500    0.5190    0.0000 H       1  UNL1        0.0661
     31 H           9.0500   -2.2869    0.0000 H       1  UNL1        0.0661
     32 H           3.7320   -2.5040    0.0000 H       1  UNL1        0.2921
     33 H          11.4800   -0.8840    0.0000 H       1  UNL1        0.0691
     34 H           3.4860    2.6160    0.0000 H       1  UNL1        0.0274
     35 H           2.8660    3.2360    0.0000 H       1  UNL1        0.0274
     36 H           2.2460    2.6160    0.0000 H       1  UNL1        0.0274
     37 H           1.6900    1.6530    0.0000 H       1  UNL1        0.0274
     38 H           1.4631    0.8060    0.0000 H       1  UNL1        0.0274
     39 H           2.3100    0.5791    0.0000 H       1  UNL1        0.0274
     40 H          11.4800   -2.6160    0.0000 H       1  UNL1        0.2921
     41 H          11.4800    0.8481    0.0000 H       1  UNL1        0.2921
@<TRIPOS>BOND
     1     1     7   ar
     2     1    10   ar
     3     2    12    1
     4     2    32    1
     5     3    19    1
     6     3    40    1
     7     4    20    1
     8     4    41    1
     9     5     7   ar
    10     5     8   ar
    11     5    11   ar
    12     6     8   ar
    13     6     9    1
    14     6    12   ar
    15     7    13   ar
    16     8    24    1
    17     9    15    1
    18     9    25    1
    19     9    26    1
    20    10    11   ar
    21    10    14    1
    22    11    27    1
    23    12    13   ar
    24    13    28    1
    25    14    17   ar
    26    14    18   ar
    27    15    16    2
    28    15    29    1
    29    16    22    1
    30    16    23    1
    31    17    20   ar
    32    17    30    1
    33    18    19   ar
    34    18    31    1
    35    19    21   ar
    36    20    21   ar
    37    21    33    1
    38    22    34    1
    39    22    35    1
    40    22    36    1
    41    23    37    1
    42    23    38    1
    43    23    39    1
