@<TRIPOS>MOLECULE
IMPHY012119
 21 21 0 0 0
SMALL
GASTEIGER

@<TRIPOS>ATOM
      1 CL          6.3301   -1.0000    0.0000 Cl      1  UNL1       -0.0410
      2 N           2.8660   -1.0000    0.0000 N.pl3   1  UNL1       -0.3212
      3 N           4.5981   -1.0000    0.0000 N.ar    1  UNL1       -0.2025
      4 N           5.4641    0.5000    0.0000 N.ar    1  UNL1       -0.2226
      5 C           3.7320   -0.5000    0.0000 C.ar    1  UNL1        0.1257
      6 C           3.7320    0.5000    0.0000 C.ar    1  UNL1       -0.0005
      7 C           4.5981    1.0000    0.0000 C.ar    1  UNL1        0.0447
      8 C           2.0000   -0.5000    0.0000 C.3     1  UNL1        0.0017
      9 C           2.8660   -2.0000    0.0000 C.3     1  UNL1        0.0017
     10 C           4.5981    2.0000    0.0000 C.3     1  UNL1       -0.0221
     11 C           5.4641   -0.5000    0.0000 C.ar    1  UNL1        0.2246
     12 H           3.1951    0.8100    0.0000 H       1  UNL1        0.0670
     13 H           2.3100    0.0369    0.0000 H       1  UNL1        0.0428
     14 H           1.4631   -0.1900    0.0000 H       1  UNL1        0.0428
     15 H           1.6900   -1.0369    0.0000 H       1  UNL1        0.0428
     16 H           2.2460   -2.0000    0.0000 H       1  UNL1        0.0428
     17 H           2.8660   -2.6200    0.0000 H       1  UNL1        0.0428
     18 H           3.4860   -2.0000    0.0000 H       1  UNL1        0.0428
     19 H           5.2181    2.0000    0.0000 H       1  UNL1        0.0293
     20 H           4.5981    2.6200    0.0000 H       1  UNL1        0.0293
     21 H           3.9781    2.0000    0.0000 H       1  UNL1        0.0293
@<TRIPOS>BOND
     1     1    11    1
     2     2     5    1
     3     2     8    1
     4     2     9    1
     5     3     5   ar
     6     3    11   ar
     7     4     7   ar
     8     4    11   ar
     9     5     6   ar
    10     6     7   ar
    11     6    12    1
    12     7    10    1
    13     8    13    1
    14     8    14    1
    15     8    15    1
    16     9    16    1
    17     9    17    1
    18     9    18    1
    19    10    19    1
    20    10    20    1
    21    10    21    1
