@<TRIPOS>MOLECULE
IMPHY003664
 45 47 0 0 0
SMALL
GASTEIGER

@<TRIPOS>ATOM
      1 O           5.2543    2.1442    0.0000 O.3     1  UNL1       -0.4532
      2 O           6.6022   -0.6940    0.0000 O.3     1  UNL1       -0.4570
      3 O           2.8734   -1.8680    0.0000 O.3     1  UNL1       -0.4536
      4 O           6.8421    2.9533    0.0000 O.2     1  UNL1       -0.2453
      5 O           4.3397   -2.8534    0.0000 O.2     1  UNL1       -0.2453
      6 O           6.0741   -2.3436    0.0000 O.2     1  UNL1       -0.2453
      7 C           5.7543    0.6054    0.0000 C.3     1  UNL1        0.0684
      8 C           5.6498   -0.3891    0.0000 C.3     1  UNL1        0.1182
      9 C           4.9453    1.1932    0.0000 C.3     1  UNL1        0.1322
     10 C           5.2620   -1.4451    0.0000 C.3     1  UNL1        0.0169
     11 C           6.5633    1.1932    0.0000 C.2     1  UNL1        0.0400
     12 C           4.3284   -1.0868    0.0000 C.2     1  UNL1        0.0396
     13 C           4.0317    0.7865    0.0000 C.2     1  UNL1       -0.0441
     14 C           2.6058   -0.9057    0.0000 C.3     1  UNL1        0.1259
     15 C           2.4494    0.0820    0.0000 C.3     1  UNL1        0.0091
     16 C           3.0372    0.8910    0.0000 C.2     1  UNL1       -0.0693
     17 C           3.4149   -1.4935    0.0000 C.2     1  UNL1       -0.0336
     18 C           6.2543    2.1442    0.0000 C.2     1  UNL1        0.3357
     19 C           3.8667   -1.9724    0.0000 C.2     1  UNL1        0.3356
     20 C           7.5144    0.8842    0.0000 C.2     1  UNL1       -0.0882
     21 C           2.6305    1.8045    0.0000 C.3     1  UNL1       -0.0435
     22 C           6.8143   -1.6712    0.0000 C.2     1  UNL1        0.3346
     23 C           7.7667   -1.9760    0.0000 C.2     1  UNL1        0.0265
     24 C           7.9789   -2.9533    0.0000 C.3     1  UNL1       -0.0335
     25 C           8.5070   -1.3037    0.0000 C.2     1  UNL1       -0.0890
     26 H           6.4419    0.1058    0.0000 H       1  UNL1        0.0427
     27 H           5.9220   -0.9462    0.0000 H       1  UNL1        0.0745
     28 H           4.2576    1.6928    0.0000 H       1  UNL1        0.0787
     29 H           5.0426   -2.0250    0.0000 H       1  UNL1        0.0351
     30 H           5.8429   -1.6617    0.0000 H       1  UNL1        0.0351
     31 H           4.1287    0.1741    0.0000 H       1  UNL1        0.0608
     32 H           1.7752   -1.0863    0.0000 H       1  UNL1        0.0783
     33 H           2.0592    0.5638    0.0000 H       1  UNL1        0.0349
     34 H           1.8830   -0.1702    0.0000 H       1  UNL1        0.0349
     35 H           3.3500   -2.1101    0.0000 H       1  UNL1        0.0613
     36 H           7.6432    0.2777    0.0000 H       1  UNL1        0.0540
     37 H           7.9751    1.2990    0.0000 H       1  UNL1        0.0540
     38 H           3.1968    2.0567    0.0000 H       1  UNL1        0.0274
     39 H           2.3783    2.3709    0.0000 H       1  UNL1        0.0274
     40 H           2.0641    1.5523    0.0000 H       1  UNL1        0.0274
     41 H           7.3730   -3.0848    0.0000 H       1  UNL1        0.0280
     42 H           8.1105   -3.5592    0.0000 H       1  UNL1        0.0280
     43 H           8.5848   -2.8217    0.0000 H       1  UNL1        0.0280
     44 H           9.0974   -1.4927    0.0000 H       1  UNL1        0.0540
     45 H           8.3754   -0.6978    0.0000 H       1  UNL1        0.0540
@<TRIPOS>BOND
     1     1     9    1
     2     1    18    1
     3     8     2    1
     4     2    22    1
     5     3    14    1
     6     3    19    1
     7     4    18    2
     8     5    19    2
     9     6    22    2
    10     7     8    1
    11     7     9    1
    12     7    11    1
    13     7    26    1
    14     8    10    1
    15     8    27    1
    16     9    13    1
    17     9    28    1
    18    10    12    1
    19    10    29    1
    20    10    30    1
    21    11    18    1
    22    11    20    2
    23    12    17    2
    24    12    19    1
    25    13    16    2
    26    13    31    1
    27    14    15    1
    28    14    17    1
    29    14    32    1
    30    15    16    1
    31    15    33    1
    32    15    34    1
    33    16    21    1
    34    17    35    1
    35    20    36    1
    36    20    37    1
    37    21    38    1
    38    21    39    1
    39    21    40    1
    40    22    23    1
    41    23    24    1
    42    23    25    2
    43    24    41    1
    44    24    42    1
    45    24    43    1
    46    25    44    1
    47    25    45    1
