@<TRIPOS>MOLECULE
IMPHY015801
 38 40 0 0 0
SMALL
GASTEIGER

@<TRIPOS>ATOM
      1 O           3.1022    2.5928    0.0000 O.2     1  UNL1       -0.2924
      2 C           2.9986   -0.8808    0.0000 C.3     1  UNL1       -0.0214
      3 C           5.8153   -0.7956    0.0000 C.3     1  UNL1       -0.0247
      4 C           4.6752    0.1615    0.0000 C.3     1  UNL1       -0.0242
      5 C           4.4164   -0.8044    0.0000 C.3     1  UNL1       -0.0039
      6 C           5.7037   -1.7990    0.0000 C.3     1  UNL1       -0.0312
      7 C           3.1706   -1.8756    0.0000 C.3     1  UNL1       -0.0468
      8 C           4.5967    1.6222    0.0000 C.3     1  UNL1        0.0138
      9 C           4.9617   -2.4836    0.0000 C.3     1  UNL1       -0.0476
     10 C           3.1954    0.8132    0.0000 C.2     1  UNL1       -0.0081
     11 C           2.0000   -0.9346    0.0000 C.3     1  UNL1       -0.0587
     12 C           3.9526   -2.5141    0.0000 C.3     1  UNL1       -0.0520
     13 C           3.6022    1.7268    0.0000 C.2     1  UNL1        0.1593
     14 C           6.7035   -1.8184    0.0000 C.3     1  UNL1       -0.0595
     15 C           6.3119   -2.5928    0.0000 C.3     1  UNL1       -0.0595
     16 C           2.2173    0.6053    0.0000 C.2     1  UNL1       -0.0919
     17 H           6.3909   -0.5652    0.0000 H       1  UNL1        0.0315
     18 H           5.2299    0.4384    0.0000 H       1  UNL1        0.0313
     19 H           3.8542   -0.5430    0.0000 H       1  UNL1        0.0358
     20 H           2.5546   -1.8050    0.0000 H       1  UNL1        0.0271
     21 H           2.9295   -2.4468    0.0000 H       1  UNL1        0.0271
     22 H           5.2167    1.6228    0.0000 H       1  UNL1        0.0348
     23 H           4.6289    2.2414    0.0000 H       1  UNL1        0.0348
     24 H           4.8053   -3.0835    0.0000 H       1  UNL1        0.0271
     25 H           5.4934   -2.8025    0.0000 H       1  UNL1        0.0271
     26 H           3.4412   -2.8646    0.0000 H       1  UNL1        0.0266
     27 H           4.1450   -3.1035    0.0000 H       1  UNL1        0.0266
     28 H           1.9667   -0.3155    0.0000 H       1  UNL1        0.0235
     29 H           1.3809   -0.9679    0.0000 H       1  UNL1        0.0235
     30 H           2.0333   -1.5537    0.0000 H       1  UNL1        0.0235
     31 H           6.6915   -2.4383    0.0000 H       1  UNL1        0.0235
     32 H           7.3234   -1.8304    0.0000 H       1  UNL1        0.0235
     33 H           6.7156   -1.1985    0.0000 H       1  UNL1        0.0235
     34 H           5.8198   -2.9699    0.0000 H       1  UNL1        0.0235
     35 H           6.6890   -3.0849    0.0000 H       1  UNL1        0.0235
     36 H           6.8041   -2.2157    0.0000 H       1  UNL1        0.0235
     37 H           1.8024    1.0661    0.0000 H       1  UNL1        0.0539
     38 H           2.0257    0.0157    0.0000 H       1  UNL1        0.0539
@<TRIPOS>BOND
     1     1    13    2
     2     2     4    1
     3     2     5    1
     4     2     7    1
     5     2    11    1
     6     3     4    1
     7     3     5    1
     8     3     6    1
     9     3    17    1
    10     4     8    1
    11     4    18    1
    12     5    10    1
    13     5    19    1
    14     6     9    1
    15     6    14    1
    16     6    15    1
    17     7    12    1
    18     7    20    1
    19     7    21    1
    20     8    13    1
    21     8    22    1
    22     8    23    1
    23     9    12    1
    24     9    24    1
    25     9    25    1
    26    10    13    1
    27    10    16    2
    28    11    28    1
    29    11    29    1
    30    11    30    1
    31    12    26    1
    32    12    27    1
    33    14    31    1
    34    14    32    1
    35    14    33    1
    36    15    34    1
    37    15    35    1
    38    15    36    1
    39    16    37    1
    40    16    38    1
