@<TRIPOS>MOLECULE
IMPHY015219
 21 20 0 0 0
SMALL
GASTEIGER

@<TRIPOS>ATOM
      1 O           2.5369   -0.8170    0.0000 O.3     1  UNL1       -0.3889
      2 C           3.4030   -0.3170    0.0000 C.3     1  UNL1        0.0628
      3 C           4.2690    0.1830    0.0000 C.3     1  UNL1       -0.0183
      4 C           2.9030    0.5490    0.0000 C.3     1  UNL1       -0.0361
      5 C           3.9030   -1.1830    0.0000 C.3     1  UNL1       -0.0361
      6 C           5.1350   -0.3170    0.0000 C.3     1  UNL1       -0.0601
      7 C           4.2690    1.1830    0.0000 C.3     1  UNL1       -0.0601
      8 H           4.2690   -0.4370    0.0000 H       1  UNL1        0.0323
      9 H           3.4399    0.8590    0.0000 H       1  UNL1        0.0257
     10 H           2.5930    1.0860    0.0000 H       1  UNL1        0.0257
     11 H           2.3660    0.2390    0.0000 H       1  UNL1        0.0257
     12 H           3.3660   -1.4930    0.0000 H       1  UNL1        0.0257
     13 H           4.2130   -1.7200    0.0000 H       1  UNL1        0.0257
     14 H           4.4399   -0.8730    0.0000 H       1  UNL1        0.0257
     15 H           4.8250   -0.8539    0.0000 H       1  UNL1        0.0233
     16 H           5.6720   -0.6270    0.0000 H       1  UNL1        0.0233
     17 H           5.4450    0.2199    0.0000 H       1  UNL1        0.0233
     18 H           4.8890    1.1830    0.0000 H       1  UNL1        0.0233
     19 H           4.2690    1.8030    0.0000 H       1  UNL1        0.0233
     20 H           3.6490    1.1830    0.0000 H       1  UNL1        0.0233
     21 H           2.0000   -0.5070    0.0000 H       1  UNL1        0.2101
@<TRIPOS>BOND
     1     1     2    1
     2     1    21    1
     3     2     3    1
     4     2     4    1
     5     2     5    1
     6     3     6    1
     7     3     7    1
     8     3     8    1
     9     4     9    1
    10     4    10    1
    11     4    11    1
    12     5    12    1
    13     5    13    1
    14     5    14    1
    15     6    15    1
    16     6    16    1
    17     6    17    1
    18     7    18    1
    19     7    19    1
    20     7    20    1
