@<TRIPOS>MOLECULE
IMPHY014436
 30 29 0 0 0
SMALL
GASTEIGER

@<TRIPOS>ATOM
      1 O           2.5369   -0.8660    0.0000 O.3     1  UNL1       -0.3845
      2 O           8.5991   -0.3660    0.0000 O.3     1  UNL1       -0.3944
      3 C           3.4030   -0.3660    0.0000 C.3     1  UNL1        0.0845
      4 C           4.2690    0.1340    0.0000 C.3     1  UNL1       -0.0024
      5 C           6.8671   -0.3660    0.0000 C.3     1  UNL1       -0.0025
      6 C           5.1350   -0.3660    0.0000 C.2     1  UNL1       -0.0846
      7 C           6.0010    0.1340    0.0000 C.2     1  UNL1       -0.0828
      8 C           3.9030   -1.2320    0.0000 C.3     1  UNL1       -0.0322
      9 C           7.7331    0.1340    0.0000 C.3     1  UNL1        0.0502
     10 C           2.9030    0.5000    0.0000 C.2     1  UNL1       -0.0599
     11 C           6.8671   -1.3660    0.0000 C.3     1  UNL1       -0.0569
     12 C           3.4030    1.3660    0.0000 C.2     1  UNL1       -0.1000
     13 H           4.6675    0.6089    0.0000 H       1  UNL1        0.0338
     14 H           3.8705    0.6089    0.0000 H       1  UNL1        0.0338
     15 H           6.3301   -0.6760    0.0000 H       1  UNL1        0.0362
     16 H           5.1350   -0.9860    0.0000 H       1  UNL1        0.0570
     17 H           6.0010    0.7540    0.0000 H       1  UNL1        0.0572
     18 H           3.3660   -1.5420    0.0000 H       1  UNL1        0.0260
     19 H           4.2130   -1.7690    0.0000 H       1  UNL1        0.0260
     20 H           4.4399   -0.9221    0.0000 H       1  UNL1        0.0260
     21 H           8.1316    0.6089    0.0000 H       1  UNL1        0.0563
     22 H           7.3346    0.6089    0.0000 H       1  UNL1        0.0563
     23 H           2.2830    0.5000    0.0000 H       1  UNL1        0.0594
     24 H           6.2471   -1.3660    0.0000 H       1  UNL1        0.0236
     25 H           6.8671   -1.9860    0.0000 H       1  UNL1        0.0236
     26 H           7.4871   -1.3660    0.0000 H       1  UNL1        0.0236
     27 H           2.0000   -0.5560    0.0000 H       1  UNL1        0.2106
     28 H           4.0230    1.3660    0.0000 H       1  UNL1        0.0533
     29 H           3.0930    1.9030    0.0000 H       1  UNL1        0.0533
     30 H           9.1360   -0.0560    0.0000 H       1  UNL1        0.2094
@<TRIPOS>BOND
     1     1     3    1
     2     1    27    1
     3     2     9    1
     4     2    30    1
     5     3     4    1
     6     3     8    1
     7     3    10    1
     8     4     6    1
     9     4    13    1
    10     4    14    1
    11     5     7    1
    12     5     9    1
    13     5    11    1
    14     5    15    1
    15     6     7    2
    16     6    16    1
    17     7    17    1
    18     8    18    1
    19     8    19    1
    20     8    20    1
    21     9    21    1
    22     9    22    1
    23    10    12    2
    24    10    23    1
    25    11    24    1
    26    11    25    1
    27    11    26    1
    28    12    28    1
    29    12    29    1
