@<TRIPOS>MOLECULE
IMPHY005474
 58 63 0 0 0
SMALL
GASTEIGER

@<TRIPOS>ATOM
      1 O          13.0244   -1.3276    0.0000 O.2     1  UNL1       -0.4544
      2 O           6.0682    0.7071    0.0000 O.2     1  UNL1       -0.4544
      3 O          11.2644    1.7071    0.0000 O.3     1  UNL1       -0.5052
      4 O           9.5323   -1.2929    0.0000 O.3     1  UNL1       -0.5059
      5 O          10.3984    2.2071    0.0000 O.3     1  UNL1       -0.5062
      6 O          13.0128    1.7417    0.0000 O.2     1  UNL1       -0.2869
      7 O           4.3198   -2.3275    0.0000 O.3     1  UNL1       -0.5058
      8 O           6.0682   -2.2929    0.0000 O.2     1  UNL1       -0.2869
      9 O           2.5381    0.7312    0.0000 O.3     1  UNL1       -0.5065
     10 O          17.3868   -2.8271    0.0000 O.3     1  UNL1       -0.5068
     11 C          10.3984    0.2071    0.0000 C.ar    1  UNL1        0.0693
     12 C           9.5323    0.7071    0.0000 C.ar    1  UNL1        0.0312
     13 C          12.1304    0.2071    0.0000 C.ar    1  UNL1        0.1061
     14 C          11.2644    0.7071    0.0000 C.ar    1  UNL1        0.1425
     15 C          12.1304   -0.7929    0.0000 C.ar    1  UNL1        0.1463
     16 C           7.8003    0.7071    0.0000 C.ar    1  UNL1        0.0182
     17 C          10.3984   -0.7929    0.0000 C.ar    1  UNL1        0.1317
     18 C           8.6663    0.2071    0.0000 C.ar    1  UNL1       -0.0396
     19 C          11.2644   -1.2929    0.0000 C.ar    1  UNL1        0.0237
     20 C           9.5323    1.7071    0.0000 C.ar    1  UNL1        0.1248
     21 C           6.9343    0.2071    0.0000 C.ar    1  UNL1        0.1392
     22 C          13.0244    0.7417    0.0000 C.ar    1  UNL1        0.1966
     23 C           7.8003    1.7071    0.0000 C.ar    1  UNL1       -0.0476
     24 C          13.9304   -0.8137    0.0000 C.ar    1  UNL1        0.1392
     25 C           8.6663    2.2071    0.0000 C.ar    1  UNL1       -0.0189
     26 C          13.9304    0.2279    0.0000 C.ar    1  UNL1        0.0288
     27 C           5.2022   -0.7929    0.0000 C.ar    1  UNL1        0.1055
     28 C           5.2022    0.2071    0.0000 C.ar    1  UNL1        0.1462
     29 C           6.9343   -0.7929    0.0000 C.ar    1  UNL1        0.0288
     30 C          14.7945   -1.3171    0.0000 C.ar    1  UNL1        0.0176
     31 C           6.0682   -1.2929    0.0000 C.ar    1  UNL1        0.1966
     32 C           4.3083   -1.3276    0.0000 C.ar    1  UNL1        0.1347
     33 C           4.3083    0.7417    0.0000 C.ar    1  UNL1        0.0231
     34 C           3.4022    0.2279    0.0000 C.ar    1  UNL1        0.1239
     35 C           3.4022   -0.8137    0.0000 C.ar    1  UNL1        0.0223
     36 C          14.7907   -2.3171    0.0000 C.ar    1  UNL1       -0.0476
     37 C          15.6625   -0.8204    0.0000 C.ar    1  UNL1       -0.0476
     38 C          15.6548   -2.8204    0.0000 C.ar    1  UNL1       -0.0195
     39 C          16.5266   -1.3238    0.0000 C.ar    1  UNL1       -0.0195
     40 C          16.5227   -2.3237    0.0000 C.ar    1  UNL1        0.1169
     41 H           8.6663   -0.4129    0.0000 H       1  UNL1        0.0632
     42 H          11.2644   -1.9129    0.0000 H       1  UNL1        0.0691
     43 H           7.2634    2.0171    0.0000 H       1  UNL1        0.0626
     44 H           8.6663    2.8271    0.0000 H       1  UNL1        0.0654
     45 H          14.4662    0.5400    0.0000 H       1  UNL1        0.0693
     46 H           7.4712   -1.1029    0.0000 H       1  UNL1        0.0693
     47 H           4.3154    1.3617    0.0000 H       1  UNL1        0.0691
     48 H          11.8013    2.0171    0.0000 H       1  UNL1        0.2922
     49 H           2.8665   -1.1258    0.0000 H       1  UNL1        0.0691
     50 H           9.5323   -1.9129    0.0000 H       1  UNL1        0.2922
     51 H          14.2525   -2.6250    0.0000 H       1  UNL1        0.0626
     52 H          15.6649   -0.2004    0.0000 H       1  UNL1        0.0626
     53 H          10.3984    2.8271    0.0000 H       1  UNL1        0.2922
     54 H          15.6524   -3.4404    0.0000 H       1  UNL1        0.0654
     55 H          17.0647   -1.0158    0.0000 H       1  UNL1        0.0654
     56 H           3.7865   -2.6437    0.0000 H       1  UNL1        0.2922
     57 H           2.0000    0.4233    0.0000 H       1  UNL1        0.2921
     58 H          17.9249   -2.5191    0.0000 H       1  UNL1        0.2921
@<TRIPOS>BOND
     1     1    15   ar
     2     1    24   ar
     3     2    21   ar
     4     2    28   ar
     5     3    14    1
     6     3    48    1
     7     4    17    1
     8     4    50    1
     9     5    20    1
    10     5    53    1
    11     6    22    2
    12     7    32    1
    13     7    56    1
    14     8    31    2
    15     9    34    1
    16     9    57    1
    17    10    40    1
    18    10    58    1
    19    11    12    1
    20    11    14   ar
    21    11    17   ar
    22    12    18   ar
    23    12    20   ar
    24    13    14   ar
    25    13    15   ar
    26    13    22   ar
    27    15    19   ar
    28    16    18   ar
    29    16    21    1
    30    16    23   ar
    31    17    19   ar
    32    18    41    1
    33    19    42    1
    34    20    25   ar
    35    21    29   ar
    36    22    26   ar
    37    23    25   ar
    38    23    43    1
    39    24    26   ar
    40    24    30    1
    41    25    44    1
    42    26    45    1
    43    27    28   ar
    44    27    31   ar
    45    27    32   ar
    46    28    33   ar
    47    29    31   ar
    48    29    46    1
    49    30    36   ar
    50    30    37   ar
    51    32    35   ar
    52    33    34   ar
    53    33    47    1
    54    34    35   ar
    55    35    49    1
    56    36    38   ar
    57    36    51    1
    58    37    39   ar
    59    37    52    1
    60    38    40   ar
    61    38    54    1
    62    39    40   ar
    63    39    55    1
