@<TRIPOS>MOLECULE
IMPHY012901
 34 38 0 0 0
SMALL
GASTEIGER

@<TRIPOS>ATOM
      1 O           2.0158    0.4969    0.0000 O.2     1  UNL1       -0.2832
      2 O           7.2882   -0.4969    0.0000 O.2     1  UNL1       -0.2832
      3 O           2.0000    2.5451    0.0000 O.2     1  UNL1       -0.2835
      4 O           7.3040   -2.5451    0.0000 O.2     1  UNL1       -0.2835
      5 N           5.6561    2.1486    0.0000 N.ar    1  UNL1       -0.3597
      6 N           3.6479   -2.1486    0.0000 N.ar    1  UNL1       -0.3597
      7 C           4.6520    1.0000    0.0000 C.ar    1  UNL1        0.0194
      8 C           4.6520   -1.0000    0.0000 C.ar    1  UNL1        0.0194
      9 C           5.5180    0.5000    0.0000 C.ar    1  UNL1        0.0123
     10 C           3.7860   -0.5000    0.0000 C.ar    1  UNL1        0.0123
     11 C           3.7860    0.5000    0.0000 C.ar    1  UNL1        0.0444
     12 C           5.5180   -0.5000    0.0000 C.ar    1  UNL1        0.0444
     13 C           4.6681    2.0415    0.0000 C.ar    1  UNL1        0.0545
     14 C           4.6359   -2.0415    0.0000 C.ar    1  UNL1        0.0545
     15 C           6.1360    1.2784    0.0000 C.ar    1  UNL1        0.0106
     16 C           3.1680   -1.2784    0.0000 C.ar    1  UNL1        0.0106
     17 C           3.7700    2.5693    0.0000 C.ar    1  UNL1        0.0239
     18 C           5.5340   -2.5693    0.0000 C.ar    1  UNL1        0.0239
     19 C           2.8760    1.0068    0.0000 C.ar    1  UNL1        0.2339
     20 C           6.4280   -1.0068    0.0000 C.ar    1  UNL1        0.2339
     21 C           2.8680    2.0484    0.0000 C.ar    1  UNL1        0.2307
     22 C           6.4361   -2.0484    0.0000 C.ar    1  UNL1        0.2307
     23 C           3.7739    3.5692    0.0000 C.3     1  UNL1       -0.0340
     24 C           5.5301   -3.5692    0.0000 C.3     1  UNL1       -0.0340
     25 H           6.7538    1.2266    0.0000 H       1  UNL1        0.0813
     26 H           2.5502   -1.2266    0.0000 H       1  UNL1        0.0813
     27 H           5.9421    2.6988    0.0000 H       1  UNL1        0.1654
     28 H           3.3619   -2.6988    0.0000 H       1  UNL1        0.1654
     29 H           4.3939    3.5669    0.0000 H       1  UNL1        0.0279
     30 H           3.7763    4.1892    0.0000 H       1  UNL1        0.0279
     31 H           3.1539    3.5716    0.0000 H       1  UNL1        0.0279
     32 H           4.9101   -3.5669    0.0000 H       1  UNL1        0.0279
     33 H           5.5277   -4.1892    0.0000 H       1  UNL1        0.0279
     34 H           6.1501   -3.5716    0.0000 H       1  UNL1        0.0279
@<TRIPOS>BOND
     1     1    19    2
     2     2    20    2
     3     3    21    2
     4     4    22    2
     5     5    13   ar
     6     5    15   ar
     7     5    27    1
     8     6    14   ar
     9     6    16   ar
    10     6    28    1
    11     7     9   ar
    12     7    11   ar
    13     7    13   ar
    14     8    10   ar
    15     8    12   ar
    16     8    14   ar
    17     9    12   ar
    18     9    15   ar
    19    10    11   ar
    20    10    16   ar
    21    11    19   ar
    22    12    20   ar
    23    13    17   ar
    24    14    18   ar
    25    15    25    1
    26    16    26    1
    27    17    21   ar
    28    17    23    1
    29    18    22   ar
    30    18    24    1
    31    19    21   ar
    32    20    22   ar
    33    23    29    1
    34    23    30    1
    35    23    31    1
    36    24    32    1
    37    24    33    1
    38    24    34    1
