@<TRIPOS>MOLECULE
IMPHY010572
 54 57 0 0 0
SMALL
GASTEIGER

@<TRIPOS>ATOM
      1 O           6.0010   -2.3080    0.0000 O.3     1  UNL1       -0.3391
      2 O           4.2690   -2.3080    0.0000 O.3     1  UNL1       -0.3405
      3 O           6.8058    0.2756    0.0000 O.3     1  UNL1       -0.4816
      4 O           6.0010   -4.3080    0.0000 O.3     1  UNL1       -0.3841
      5 O           4.2690   -5.3080    0.0000 O.3     1  UNL1       -0.3864
      6 O           2.5369   -4.3080    0.0000 O.3     1  UNL1       -0.3865
      7 O           2.5369   -1.3080    0.0000 O.3     1  UNL1       -0.3924
      8 O           8.0010    2.0879    0.0000 O.3     1  UNL1       -0.5009
      9 O           7.0357    3.8478    0.0000 O.2     1  UNL1       -0.4183
     10 O           7.0252    5.6180    0.0000 O.2     1  UNL1       -0.2452
     11 C           6.0010   -1.3080    0.0000 C.3     1  UNL1        0.1039
     12 C           6.0010   -0.3080    0.0000 C.3     1  UNL1        0.1328
     13 C           5.1350   -2.8080    0.0000 C.3     1  UNL1        0.1887
     14 C           5.1350   -3.8080    0.0000 C.3     1  UNL1        0.1341
     15 C           4.2690   -4.3080    0.0000 C.3     1  UNL1        0.1141
     16 C           3.4030   -3.8080    0.0000 C.3     1  UNL1        0.1119
     17 C           3.4030   -2.8080    0.0000 C.3     1  UNL1        0.1130
     18 C           5.1963    0.2756    0.0000 C.3     1  UNL1        0.0158
     19 C           7.0010   -1.3080    0.0000 C.3     1  UNL1       -0.0325
     20 C           5.0010   -1.3080    0.0000 C.3     1  UNL1       -0.0325
     21 C           5.5010    1.2218    0.0000 C.ar    1  UNL1        0.0023
     22 C           6.5010    1.2218    0.0000 C.ar    1  UNL1        0.1693
     23 C           2.5369   -2.3080    0.0000 C.3     1  UNL1        0.0730
     24 C           5.0010    2.0879    0.0000 C.ar    1  UNL1       -0.0441
     25 C           7.0010    2.0879    0.0000 C.ar    1  UNL1        0.2027
     26 C           5.5010    2.9539    0.0000 C.ar    1  UNL1        0.0218
     27 C           6.5010    2.9539    0.0000 C.ar    1  UNL1        0.1839
     28 C           4.9664    3.8478    0.0000 C.ar    1  UNL1       -0.0442
     29 C           5.4802    4.7539    0.0000 C.ar    1  UNL1        0.0236
     30 C           6.5218    4.7539    0.0000 C.ar    1  UNL1        0.3373
     31 H           6.7582   -0.6942    0.0000 H       1  UNL1        0.0765
     32 H           5.1350   -2.1880    0.0000 H       1  UNL1        0.0938
     33 H           5.1350   -4.4280    0.0000 H       1  UNL1        0.0671
     34 H           3.7320   -4.6180    0.0000 H       1  UNL1        0.0648
     35 H           2.8660   -3.4980    0.0000 H       1  UNL1        0.0647
     36 H           3.4030   -2.1880    0.0000 H       1  UNL1        0.0647
     37 H           4.6294    0.5267    0.0000 H       1  UNL1        0.0351
     38 H           4.8871   -0.2618    0.0000 H       1  UNL1        0.0351
     39 H           7.0010   -1.9280    0.0000 H       1  UNL1        0.0258
     40 H           7.6210   -1.3080    0.0000 H       1  UNL1        0.0258
     41 H           7.0010   -0.6880    0.0000 H       1  UNL1        0.0258
     42 H           5.0010   -0.6880    0.0000 H       1  UNL1        0.0258
     43 H           4.3810   -1.3080    0.0000 H       1  UNL1        0.0258
     44 H           5.0010   -1.9280    0.0000 H       1  UNL1        0.0258
     45 H           1.9264   -2.2003    0.0000 H       1  UNL1        0.0584
     46 H           2.3249   -2.8906    0.0000 H       1  UNL1        0.0584
     47 H           4.3810    2.0879    0.0000 H       1  UNL1        0.0628
     48 H           6.0010   -4.9280    0.0000 H       1  UNL1        0.2101
     49 H           3.7320   -5.6180    0.0000 H       1  UNL1        0.2100
     50 H           2.0000   -3.9980    0.0000 H       1  UNL1        0.2100
     51 H           2.0000   -0.9980    0.0000 H       1  UNL1        0.2095
     52 H           4.3464    3.8407    0.0000 H       1  UNL1        0.0627
     53 H           8.3110    2.6248    0.0000 H       1  UNL1        0.2924
     54 H           5.1682    5.2896    0.0000 H       1  UNL1        0.0689
@<TRIPOS>BOND
     1     1    11    1
     2    13     1    1
     3     2    13    1
     4     2    17    1
     5     3    12    1
     6     3    22    1
     7    14     4    1
     8     4    48    1
     9    15     5    1
    10     5    49    1
    11    16     6    1
    12     6    50    1
    13     7    23    1
    14     7    51    1
    15     8    25    1
    16     8    53    1
    17     9    27   ar
    18     9    30   ar
    19    10    30    2
    20    11    12    1
    21    11    19    1
    22    11    20    1
    23    12    18    1
    24    12    31    1
    25    13    14    1
    26    13    32    1
    27    14    15    1
    28    14    33    1
    29    15    16    1
    30    15    34    1
    31    16    17    1
    32    16    35    1
    33    17    23    1
    34    17    36    1
    35    18    21    1
    36    18    37    1
    37    18    38    1
    38    19    39    1
    39    19    40    1
    40    19    41    1
    41    20    42    1
    42    20    43    1
    43    20    44    1
    44    21    22   ar
    45    21    24   ar
    46    22    25   ar
    47    23    45    1
    48    23    46    1
    49    24    26   ar
    50    24    47    1
    51    25    27   ar
    52    26    27   ar
    53    26    28   ar
    54    28    29   ar
    55    28    52    1
    56    29    30   ar
    57    29    54    1
