@<TRIPOS>MOLECULE
IMPHY000511
 35 37 0 0 0
SMALL
GASTEIGER

@<TRIPOS>ATOM
      1 O        2474.0400 2568.7300    0.0000 O.3     1  UNL1       -0.4442
      2 C        2439.4000 2548.6800    0.0000 C.ar    1  UNL1        0.2086
      3 C        2439.4000 2508.6800    0.0000 C.ar    1  UNL1        0.1755
      4 O        2474.4400 2489.3300    0.0000 O.3     1  UNL1       -0.4683
      5 C        2474.4400 2449.3300    0.0000 C.3     1  UNL1        0.2526
      6 C        2404.6700 2488.7300    0.0000 C.ar    1  UNL1        0.0402
      7 C        2370.1200 2508.6800    0.0000 C.ar    1  UNL1        0.0060
      8 C        2370.1200 2548.6800    0.0000 C.ar    1  UNL1        0.0402
      9 C        2404.6700 2568.7300    0.0000 C.ar    1  UNL1        0.1755
     10 O        2404.6700 2608.7300    0.0000 O.3     1  UNL1       -0.4683
     11 C        2439.3100 2628.6800    0.0000 C.3     1  UNL1        0.2526
     12 C        2335.4800 2488.7300    0.0000 C.2     1  UNL1       -0.0018
     13 C        2300.8400 2508.6800    0.0000 C.2     1  UNL1        0.0091
     14 C        2266.2000 2488.7300    0.0000 C.3     1  UNL1        0.2084
     15 O        2231.5600 2508.6800    0.0000 O.3     1  UNL1       -0.2152
     16 C        2508.6800 2548.6800    0.0000 C.3     1  UNL1        0.3220
     17 C        2520.2000 2511.2700    0.0000 C.3     1  UNL1        0.2539
     18 O        2496.7700 2478.9100    0.0000 O.3     1  UNL1       -0.2135
     19 C        2560.5000 2511.2700    0.0000 C.3     1  UNL1        0.2148
     20 C        2573.5000 2548.6800    0.0000 C.3     1  UNL1        0.1814
     21 O        2541.8400 2573.2000    0.0000 O.3     1  UNL1       -0.3158
     22 C        2595.2400 2491.3200    0.0000 C.3     1  UNL1        0.1803
     23 O        2629.8800 2511.2700    0.0000 O.3     1  UNL1       -0.3257
     24 C        2664.5200 2491.3200    0.0000 C.3     1  UNL1        0.2695
     25 O        2664.5200 2451.3200    0.0000 O.3     1  UNL1       -0.3256
     26 C        2699.0600 2431.2700    0.0000 C.3     1  UNL1        0.1835
     27 C        2699.0600 2391.2700    0.0000 C.3     1  UNL1        0.2142
     28 O        2733.7000 2371.3200    0.0000 O.3     1  UNL1       -0.2176
     29 C        2733.8000 2451.3200    0.0000 C.3     1  UNL1        0.2144
     30 C        2733.8000 2491.3200    0.0000 C.3     1  UNL1        0.2198
     31 C        2699.0600 2511.2700    0.0000 C.3     1  UNL1        0.2406
     32 O        2699.0600 2551.2700    0.0000 O.3     1  UNL1       -0.2149
     33 O        2768.4400 2511.2700    0.0000 O.3     1  UNL1       -0.2174
     34 O        2768.4400 2431.2700    0.0000 O.3     1  UNL1       -0.2176
     35 O        2550.1700 2472.6600    0.0000 O.3     1  UNL1       -0.2176
@<TRIPOS>BOND
     1     1     2    1
     2     2     3   ar
     3     2     9   ar
     4     3     4    1
     5     3     6   ar
     6     4     5    1
     7     6     7   ar
     8     7    12    1
     9     8     7   ar
    10     9     8   ar
    11     9    10    1
    12    10    11    1
    13    12    13    2
    14    13    14    1
    15    14    15    1
    16    16     1    1
    17    16    17    1
    18    16    21    1
    19    17    18    1
    20    17    19    1
    21    19    20    1
    22    19    22    1
    23    19    35    1
    24    21    20    1
    25    22    23    1
    26    24    23    1
    27    24    25    1
    28    24    31    1
    29    25    26    1
    30    26    27    1
    31    26    29    1
    32    27    28    1
    33    29    34    1
    34    30    29    1
    35    30    33    1
    36    31    30    1
    37    31    32    1
