@<TRIPOS>MOLECULE
IMPHY002111
 114 121 0 0 0
SMALL
GASTEIGER

@<TRIPOS>ATOM
      1 O           7.0136   -4.3795    0.0000 O.3     1  UNL1       -0.4570
      2 O           8.2810   -2.4248    0.0000 O.3     1  UNL1       -0.3733
      3 O           9.0242   -3.0939    0.0000 O.3     1  UNL1       -0.4658
      4 O           8.8163   -4.0720    0.0000 O.2     1  UNL1       -0.2474
      5 O           8.7046    1.4615    0.0000 O.3     1  UNL1       -0.4947
      6 O           8.3007   -5.5384    0.0000 O.2     1  UNL1       -0.2512
      7 O           8.0625    2.4216    0.0000 O.3     1  UNL1       -0.4670
      8 O           7.2156    0.9108    0.0000 O.2     1  UNL1       -0.2494
      9 O           7.6826    2.1003    0.0000 O.2     1  UNL1       -0.2970
     10 O           7.0089    2.8142    0.0000 O.2     1  UNL1       -0.2790
     11 N           4.5871   -2.1508    0.0000 N.3     1  UNL1       -0.2939
     12 N           7.6666   -1.1502    0.0000 N.pl3   1  UNL1       -0.3252
     13 N           4.8985    1.2722    0.0000 N.ar    1  UNL1       -0.3565
     14 N           6.7138    4.6026    0.0000 N.am    1  UNL1       -0.2802
     15 C           6.1269   -1.6505    0.0000 C.3     1  UNL1        0.0369
     16 C           5.5014   -2.3451    0.0000 C.3     1  UNL1        0.0348
     17 C           5.7903   -3.2341    0.0000 C.3     1  UNL1        0.0453
     18 C           7.0412   -1.8448    0.0000 C.3     1  UNL1        0.0772
     19 C           7.3300   -2.7338    0.0000 C.3     1  UNL1        0.2195
     20 C           5.7418   -0.6149    0.0000 C.3     1  UNL1       -0.0272
     21 C           6.7046   -3.4284    0.0000 C.3     1  UNL1        0.1542
     22 C           6.4635   -0.0669    0.0000 C.ar    1  UNL1       -0.0162
     23 C           4.2983   -1.2618    0.0000 C.3     1  UNL1        0.0005
     24 C           6.0993   -4.1851    0.0000 C.3     1  UNL1       -0.0418
     25 C           7.3778   -0.2612    0.0000 C.ar    1  UNL1        0.0372
     26 C           5.1648   -3.9287    0.0000 C.2     1  UNL1       -0.0755
     27 C           3.9617   -2.8454    0.0000 C.3     1  UNL1        0.0175
     28 C           4.2505   -3.7344    0.0000 C.2     1  UNL1       -0.0733
     29 C           8.0731   -3.4029    0.0000 C.2     1  UNL1        0.3446
     30 C           6.1746    0.8221    0.0000 C.ar    1  UNL1       -0.0481
     31 C           8.6176   -0.8412    0.0000 C.3     1  UNL1        0.0011
     32 C           5.4302   -4.9283    0.0000 C.3     1  UNL1       -0.0643
     33 C           8.0032    0.4334    0.0000 C.ar    1  UNL1        0.0017
     34 C           6.8001    1.5167    0.0000 C.ar    1  UNL1        0.0176
     35 C           7.7144    1.3224    0.0000 C.ar    1  UNL1        0.1265
     36 C           6.3306    2.3996    0.0000 C.3     1  UNL1        0.1423
     37 C           7.3226   -5.3305    0.0000 C.2     1  UNL1        0.3043
     38 C           6.6001    3.3626    0.0000 C.3     1  UNL1        0.0316
     39 C           5.3619    2.1516    0.0000 C.ar    1  UNL1        0.0422
     40 C           6.6535   -6.0737    0.0000 C.3     1  UNL1        0.0332
     41 C           9.7673   -3.7630    0.0000 C.3     1  UNL1        0.0818
     42 C           7.2029    1.9107    0.0000 C.2     1  UNL1        0.3239
     43 C           4.6626    2.8665    0.0000 C.ar    1  UNL1       -0.0162
     44 C           7.5631    3.0931    0.0000 C.2     1  UNL1        0.1391
     45 C           9.3203    0.6735    0.0000 C.3     1  UNL1        0.0788
     46 C           3.7731    2.4227    0.0000 C.ar    1  UNL1        0.0032
     47 C           3.9186    1.4394    0.0000 C.ar    1  UNL1        0.0470
     48 C           4.9322    3.8295    0.0000 C.3     1  UNL1       -0.0092
     49 C           8.4346    3.5835    0.0000 C.3     1  UNL1        0.0285
     50 C           5.7139    4.6137    0.0000 C.3     1  UNL1        0.0230
     51 C           2.8163    2.8185    0.0000 C.ar    1  UNL1       -0.0523
     52 C           9.0494    2.2605    0.0000 C.3     1  UNL1        0.0817
     53 C           3.1172    0.7837    0.0000 C.ar    1  UNL1       -0.0378
     54 C           8.4458    4.5834    0.0000 C.2     1  UNL1       -0.0487
     55 C           2.0000    2.1815    0.0000 C.ar    1  UNL1       -0.0611
     56 C           2.1515    1.1572    0.0000 C.ar    1  UNL1       -0.0598
     57 C           7.5853    5.0930    0.0000 C.2     1  UNL1       -0.0014
     58 C           9.3173    5.0737    0.0000 C.3     1  UNL1       -0.0327
     59 C           7.2783    3.7772    0.0000 C.2     1  UNL1        0.2063
     60 C           9.3284    6.0737    0.0000 C.3     1  UNL1       -0.0615
     61 H           5.2387   -1.5367    0.0000 H       1  UNL1        0.0482
     62 H           7.8726   -2.0216    0.0000 H       1  UNL1        0.0544
     63 H           6.3181   -0.3862    0.0000 H       1  UNL1        0.0287
     64 H           5.5006   -0.0437    0.0000 H       1  UNL1        0.0287
     65 H           7.3110   -3.5573    0.0000 H       1  UNL1        0.0779
     66 H           4.0651   -0.6873    0.0000 H       1  UNL1        0.0427
     67 H           3.7158   -1.4744    0.0000 H       1  UNL1        0.0427
     68 H           6.4810   -4.6737    0.0000 H       1  UNL1        0.0273
     69 H           6.6467   -3.8941    0.0000 H       1  UNL1        0.0273
     70 H           5.3564   -4.5184    0.0000 H       1  UNL1        0.0577
     71 H           3.5800   -2.3568    0.0000 H       1  UNL1        0.0470
     72 H           3.4142   -3.1365    0.0000 H       1  UNL1        0.0470
     73 H           3.8357   -4.1951    0.0000 H       1  UNL1        0.0582
     74 H           5.5682    0.9510    0.0000 H       1  UNL1        0.0625
     75 H           8.6959   -1.9640    0.0000 H       1  UNL1        0.2111
     76 H           8.8092   -1.4308    0.0000 H       1  UNL1        0.0428
     77 H           9.2073   -0.6496    0.0000 H       1  UNL1        0.0428
     78 H           8.4261   -0.2515    0.0000 H       1  UNL1        0.0428
     79 H           4.9694   -4.5134    0.0000 H       1  UNL1        0.0230
     80 H           5.0153   -5.3890    0.0000 H       1  UNL1        0.0230
     81 H           5.8909   -5.3431    0.0000 H       1  UNL1        0.0230
     82 H           8.6096    0.3045    0.0000 H       1  UNL1        0.0673
     83 H           6.7672    3.9597    0.0000 H       1  UNL1        0.0359
     84 H           6.0031    3.5298    0.0000 H       1  UNL1        0.0359
     85 H           6.1927   -5.6588    0.0000 H       1  UNL1        0.0342
     86 H           6.2386   -6.5344    0.0000 H       1  UNL1        0.0342
     87 H           7.1142   -6.4885    0.0000 H       1  UNL1        0.0342
     88 H           9.3525   -4.2238    0.0000 H       1  UNL1        0.0661
     89 H          10.2281   -4.1779    0.0000 H       1  UNL1        0.0661
     90 H          10.1822   -3.3023    0.0000 H       1  UNL1        0.0661
     91 H           5.1728    0.7162    0.0000 H       1  UNL1        0.1656
     92 H           8.8317    0.2918    0.0000 H       1  UNL1        0.0660
     93 H           9.7020    0.1849    0.0000 H       1  UNL1        0.0660
     94 H           9.8089    1.0552    0.0000 H       1  UNL1        0.0660
     95 H           4.6716    4.3921    0.0000 H       1  UNL1        0.0329
     96 H           5.4676    3.5169    0.0000 H       1  UNL1        0.0329
     97 H           8.6402    2.9985    0.0000 H       1  UNL1        0.0387
     98 H           9.0464    3.6843    0.0000 H       1  UNL1        0.0387
     99 H           5.8784    5.2115    0.0000 H       1  UNL1        0.0471
    100 H           5.1777    4.9251    0.0000 H       1  UNL1        0.0471
    101 H           2.7327    3.4328    0.0000 H       1  UNL1        0.0624
    102 H           8.9495    1.6486    0.0000 H       1  UNL1        0.0661
    103 H           9.6613    2.1606    0.0000 H       1  UNL1        0.0661
    104 H           9.1493    2.8724    0.0000 H       1  UNL1        0.0661
    105 H           3.2150    0.1715    0.0000 H       1  UNL1        0.0638
    106 H           1.4244    2.4119    0.0000 H       1  UNL1        0.0618
    107 H           1.6672    0.7701    0.0000 H       1  UNL1        0.0618
    108 H           7.5922    5.7129    0.0000 H       1  UNL1        0.0784
    109 H           9.5228    4.4888    0.0000 H       1  UNL1        0.0308
    110 H           9.9290    5.1746    0.0000 H       1  UNL1        0.0308
    111 H           7.7900    4.1271    0.0000 H       1  UNL1        0.1257
    112 H           9.9484    6.0668    0.0000 H       1  UNL1        0.0233
    113 H           9.3353    6.6936    0.0000 H       1  UNL1        0.0233
    114 H           8.7084    6.0806    0.0000 H       1  UNL1        0.0233
@<TRIPOS>BOND
     1    21     1    1
     2     1    37    1
     3    19     2    1
     4     2    75    1
     5     3    29    1
     6     3    41    1
     7     4    29    2
     8     5    35    1
     9     5    45    1
    10     6    37    2
    11     7    42    1
    12     7    52    1
    13     8    42    2
    14     9    44    2
    15    10    59    2
    16    11    16    1
    17    11    23    1
    18    11    27    1
    19    12    18    1
    20    12    25    1
    21    12    31    1
    22    13    39   ar
    23    13    47   ar
    24    13    91    1
    25    14    50    1
    26    14    57    1
    27    14    59   am
    28    15    16    1
    29    15    18    1
    30    15    20    1
    31    15    22    1
    32    16    17    1
    33    16    61    1
    34    17    21    1
    35    17    24    1
    36    17    26    1
    37    18    19    1
    38    18    62    1
    39    19    21    1
    40    19    29    1
    41    20    23    1
    42    20    63    1
    43    20    64    1
    44    21    65    1
    45    22    25   ar
    46    22    30   ar
    47    23    66    1
    48    23    67    1
    49    24    32    1
    50    24    68    1
    51    24    69    1
    52    25    33   ar
    53    26    28    2
    54    26    70    1
    55    27    28    1
    56    27    71    1
    57    27    72    1
    58    28    73    1
    59    30    34   ar
    60    30    74    1
    61    31    76    1
    62    31    77    1
    63    31    78    1
    64    32    79    1
    65    32    80    1
    66    32    81    1
    67    33    35   ar
    68    33    82    1
    69    34    35   ar
    70    34    36    1
    71    36    38    1
    72    36    39    1
    73    36    42    1
    74    37    40    1
    75    38    44    1
    76    38    83    1
    77    38    84    1
    78    39    43   ar
    79    40    85    1
    80    40    86    1
    81    40    87    1
    82    41    88    1
    83    41    89    1
    84    41    90    1
    85    43    46   ar
    86    43    48    1
    87    44    49    1
    88    45    92    1
    89    45    93    1
    90    45    94    1
    91    46    47   ar
    92    46    51   ar
    93    47    53   ar
    94    48    50    1
    95    48    95    1
    96    48    96    1
    97    49    54    1
    98    49    97    1
    99    49    98    1
   100    50    99    1
   101    50   100    1
   102    51    55   ar
   103    51   101    1
   104    52   102    1
   105    52   103    1
   106    52   104    1
   107    53    56   ar
   108    53   105    1
   109    54    57    2
   110    54    58    1
   111    55    56   ar
   112    55   106    1
   113    56   107    1
   114    57   108    1
   115    58    60    1
   116    58   109    1
   117    58   110    1
   118    59   111    1
   119    60   112    1
   120    60   113    1
   121    60   114    1
