@<TRIPOS>MOLECULE
IMPHY012156
 32 31 0 0 0
SMALL
GASTEIGER

@<TRIPOS>ATOM
      1 C           3.7320    0.2500    0.0000 C.3     1  UNL1       -0.0441
      2 C           4.5981    0.7500    0.0000 C.3     1  UNL1       -0.0505
      3 C           5.4641    0.2500    0.0000 C.3     1  UNL1       -0.0526
      4 C           6.3301    0.7500    0.0000 C.3     1  UNL1       -0.0507
      5 C           7.1962    0.2500    0.0000 C.3     1  UNL1       -0.0467
      6 C           2.8660    0.7500    0.0000 C.3     1  UNL1       -0.0533
      7 C           3.7320   -0.7500    0.0000 C.3     1  UNL1       -0.0624
      8 C           8.0622    0.7500    0.0000 C.3     1  UNL1       -0.0627
      9 C           7.1962   -0.7500    0.0000 C.3     1  UNL1       -0.0627
     10 C           2.0000    0.2500    0.0000 C.3     1  UNL1       -0.0650
     11 H           4.2690   -0.0600    0.0000 H       1  UNL1        0.0298
     12 H           4.9966    1.2250    0.0000 H       1  UNL1        0.0268
     13 H           4.1996    1.2250    0.0000 H       1  UNL1        0.0268
     14 H           5.0656   -0.2249    0.0000 H       1  UNL1        0.0265
     15 H           5.8626   -0.2249    0.0000 H       1  UNL1        0.0265
     16 H           6.7287    1.2250    0.0000 H       1  UNL1        0.0268
     17 H           5.9316    1.2250    0.0000 H       1  UNL1        0.0268
     18 H           6.6592   -0.0600    0.0000 H       1  UNL1        0.0295
     19 H           3.2646    1.2250    0.0000 H       1  UNL1        0.0265
     20 H           2.4675    1.2250    0.0000 H       1  UNL1        0.0265
     21 H           3.1120   -0.7500    0.0000 H       1  UNL1        0.0232
     22 H           3.7320   -1.3700    0.0000 H       1  UNL1        0.0232
     23 H           4.3520   -0.7500    0.0000 H       1  UNL1        0.0232
     24 H           8.3722    0.2131    0.0000 H       1  UNL1        0.0232
     25 H           8.5991    1.0600    0.0000 H       1  UNL1        0.0232
     26 H           7.7522    1.2869    0.0000 H       1  UNL1        0.0232
     27 H           6.5762   -0.7500    0.0000 H       1  UNL1        0.0232
     28 H           7.1962   -1.3700    0.0000 H       1  UNL1        0.0232
     29 H           7.8162   -0.7500    0.0000 H       1  UNL1        0.0232
     30 H           1.6900    0.7869    0.0000 H       1  UNL1        0.0230
     31 H           1.4631   -0.0600    0.0000 H       1  UNL1        0.0230
     32 H           2.3100   -0.2869    0.0000 H       1  UNL1        0.0230
@<TRIPOS>BOND
     1     1     2    1
     2     1     6    1
     3     1     7    1
     4     1    11    1
     5     2     3    1
     6     2    12    1
     7     2    13    1
     8     3     4    1
     9     3    14    1
    10     3    15    1
    11     4     5    1
    12     4    16    1
    13     4    17    1
    14     5     8    1
    15     5     9    1
    16     5    18    1
    17     6    10    1
    18     6    19    1
    19     6    20    1
    20     7    21    1
    21     7    22    1
    22     7    23    1
    23     8    24    1
    24     8    25    1
    25     8    26    1
    26     9    27    1
    27     9    28    1
    28     9    29    1
    29    10    30    1
    30    10    31    1
    31    10    32    1
