@<TRIPOS>MOLECULE
IMPHY015084
 68 72 0 0 0
SMALL
GASTEIGER

@<TRIPOS>ATOM
      1 O           9.4651   -1.2857    0.0000 O.3     1  UNL1       -0.3302
      2 O          11.1972   -1.2857    0.0000 O.3     1  UNL1       -0.4532
      3 O           7.7331   -3.2857    0.0000 O.3     1  UNL1       -0.3864
      4 O           9.4651   -4.2857    0.0000 O.3     1  UNL1       -0.3864
      5 O          11.1972   -3.2857    0.0000 O.3     1  UNL1       -0.3829
      6 O           6.8671   -1.7857    0.0000 O.3     1  UNL1       -0.4585
      7 O          12.0632    1.2143    0.0000 O.2     1  UNL1       -0.4507
      8 O           9.4651   -0.2857    0.0000 O.2     1  UNL1       -0.2830
      9 O           6.0010   -0.2857    0.0000 O.2     1  UNL1       -0.2450
     10 O           8.5610    1.2112    0.0000 O.3     1  UNL1       -0.5058
     11 O          10.3191    4.2836    0.0000 O.3     1  UNL1       -0.5065
     12 O          15.5273    0.2143    0.0000 O.3     1  UNL1       -0.5033
     13 O          15.5273   -1.7857    0.0000 O.3     1  UNL1       -0.5033
     14 O           4.2690   -4.2857    0.0000 O.3     1  UNL1       -0.5032
     15 O           2.5369   -1.2857    0.0000 O.3     1  UNL1       -0.5032
     16 O           2.5369   -3.2857    0.0000 O.3     1  UNL1       -0.5009
     17 C           8.5991   -2.7857    0.0000 C.3     1  UNL1        0.1130
     18 C           9.4651   -3.2857    0.0000 C.3     1  UNL1        0.1152
     19 C           8.5991   -1.7857    0.0000 C.3     1  UNL1        0.1250
     20 C          10.3312   -2.7857    0.0000 C.3     1  UNL1        0.1454
     21 C          10.3312   -1.7857    0.0000 C.3     1  UNL1        0.2312
     22 C           7.7331   -1.2857    0.0000 C.3     1  UNL1        0.1215
     23 C          11.1972   -0.2857    0.0000 C.ar    1  UNL1        0.2138
     24 C          12.0632    0.2143    0.0000 C.ar    1  UNL1        0.1810
     25 C          10.3312    0.2143    0.0000 C.ar    1  UNL1        0.2382
     26 C          10.3312    1.2143    0.0000 C.ar    1  UNL1        0.1092
     27 C           6.0010   -1.2857    0.0000 C.2     1  UNL1        0.3395
     28 C          11.1972    1.7143    0.0000 C.ar    1  UNL1        0.1465
     29 C          12.9292   -0.2857    0.0000 C.ar    1  UNL1        0.0247
     30 C           5.1350   -1.7857    0.0000 C.ar    1  UNL1        0.0661
     31 C           9.4212    1.7212    0.0000 C.ar    1  UNL1        0.1348
     32 C          11.2132    2.7558    0.0000 C.ar    1  UNL1        0.0231
     33 C          13.7953    0.2143    0.0000 C.ar    1  UNL1       -0.0057
     34 C          12.9292   -1.2857    0.0000 C.ar    1  UNL1       -0.0473
     35 C           9.4131    2.7628    0.0000 C.ar    1  UNL1        0.0223
     36 C          10.3152    3.2836    0.0000 C.ar    1  UNL1        0.1239
     37 C           4.2690   -1.2857    0.0000 C.ar    1  UNL1       -0.0023
     38 C           5.1350   -2.7857    0.0000 C.ar    1  UNL1       -0.0023
     39 C          14.6613   -0.2857    0.0000 C.ar    1  UNL1        0.1589
     40 C          13.7953   -1.7857    0.0000 C.ar    1  UNL1       -0.0159
     41 C          14.6613   -1.2857    0.0000 C.ar    1  UNL1        0.1583
     42 C           4.2690   -3.2857    0.0000 C.ar    1  UNL1        0.1628
     43 C           3.4030   -1.7857    0.0000 C.ar    1  UNL1        0.1628
     44 C           3.4030   -2.7857    0.0000 C.ar    1  UNL1        0.2006
     45 H           8.5991   -3.4057    0.0000 H       1  UNL1        0.0647
     46 H          10.0021   -3.5957    0.0000 H       1  UNL1        0.0648
     47 H           8.5991   -1.1657    0.0000 H       1  UNL1        0.0658
     48 H          10.8681   -2.4757    0.0000 H       1  UNL1        0.0683
     49 H          10.3312   -1.1657    0.0000 H       1  UNL1        0.1084
     50 H           8.1316   -0.8107    0.0000 H       1  UNL1        0.0725
     51 H           7.3346   -0.8107    0.0000 H       1  UNL1        0.0725
     52 H           7.7331   -3.9057    0.0000 H       1  UNL1        0.2100
     53 H           8.9282   -4.5957    0.0000 H       1  UNL1        0.2100
     54 H          11.1972   -3.9057    0.0000 H       1  UNL1        0.2102
     55 H          11.7537    3.0596    0.0000 H       1  UNL1        0.0691
     56 H          13.7953    0.8343    0.0000 H       1  UNL1        0.0662
     57 H          12.3923   -1.5957    0.0000 H       1  UNL1        0.0626
     58 H           8.8750    3.0707    0.0000 H       1  UNL1        0.0691
     59 H           4.2690   -0.6657    0.0000 H       1  UNL1        0.0663
     60 H           5.6720   -3.0957    0.0000 H       1  UNL1        0.0663
     61 H          13.7953   -2.4057    0.0000 H       1  UNL1        0.0655
     62 H           8.0205    1.5150    0.0000 H       1  UNL1        0.2922
     63 H           9.7833    4.5957    0.0000 H       1  UNL1        0.2921
     64 H          15.5273    0.8343    0.0000 H       1  UNL1        0.2923
     65 H          15.5273   -2.4057    0.0000 H       1  UNL1        0.2923
     66 H           3.7320   -4.5957    0.0000 H       1  UNL1        0.2923
     67 H           2.5369   -0.6657    0.0000 H       1  UNL1        0.2923
     68 H           2.0000   -2.9757    0.0000 H       1  UNL1        0.2924
@<TRIPOS>BOND
     1     1    19    1
     2     1    21    1
     3    21     2    1
     4     2    23    1
     5    17     3    1
     6     3    52    1
     7    18     4    1
     8     4    53    1
     9    20     5    1
    10     5    54    1
    11     6    22    1
    12     6    27    1
    13     7    24   ar
    14     7    28   ar
    15     8    25    2
    16     9    27    2
    17    10    31    1
    18    10    62    1
    19    11    36    1
    20    11    63    1
    21    12    39    1
    22    12    64    1
    23    13    41    1
    24    13    65    1
    25    14    42    1
    26    14    66    1
    27    15    43    1
    28    15    67    1
    29    16    44    1
    30    16    68    1
    31    17    18    1
    32    17    19    1
    33    17    45    1
    34    18    20    1
    35    18    46    1
    36    19    22    1
    37    19    47    1
    38    20    21    1
    39    20    48    1
    40    21    49    1
    41    22    50    1
    42    22    51    1
    43    23    24   ar
    44    23    25   ar
    45    24    29    1
    46    25    26   ar
    47    26    28   ar
    48    26    31   ar
    49    27    30    1
    50    28    32   ar
    51    29    33   ar
    52    29    34   ar
    53    30    37   ar
    54    30    38   ar
    55    31    35   ar
    56    32    36   ar
    57    32    55    1
    58    33    39   ar
    59    33    56    1
    60    34    40   ar
    61    34    57    1
    62    35    36   ar
    63    35    58    1
    64    37    43   ar
    65    37    59    1
    66    38    42   ar
    67    38    60    1
    68    39    41   ar
    69    40    41   ar
    70    40    61    1
    71    42    44   ar
    72    43    44   ar
