@<TRIPOS>MOLECULE
IMPHY012285
 26 27 0 0 0
SMALL
GASTEIGER

@<TRIPOS>ATOM
      1 O           2.0000   -0.5000    0.0000 O.3     1  UNL1       -0.4335
      2 O           2.8660   -2.0000    0.0000 O.2     1  UNL1       -0.2501
      3 C           3.7320   -0.5000    0.0000 C.3     1  UNL1        0.0659
      4 C           3.7320    0.5000    0.0000 C.3     1  UNL1       -0.0038
      5 C           4.6783   -0.8047    0.0000 C.3     1  UNL1       -0.0304
      6 C           4.6783    0.8047    0.0000 C.3     1  UNL1       -0.0454
      7 C           5.2619    0.0000    0.0000 C.3     1  UNL1       -0.0491
      8 C           2.8660    1.0000    0.0000 C.2     1  UNL1       -0.0339
      9 C           4.9889   -1.7552    0.0000 C.3     1  UNL1       -0.0616
     10 C           2.8660   -1.0000    0.0000 C.2     1  UNL1        0.3157
     11 C           2.0000    0.5000    0.0000 C.2     1  UNL1        0.0949
     12 C           2.8660    2.0000    0.0000 C.3     1  UNL1       -0.0403
     13 H           3.7977   -1.1165    0.0000 H       1  UNL1        0.0422
     14 H           3.7977    1.1165    0.0000 H       1  UNL1        0.0355
     15 H           5.2908   -0.9009    0.0000 H       1  UNL1        0.0306
     16 H           5.2156    1.1140    0.0000 H       1  UNL1        0.0271
     17 H           4.4272    1.3716    0.0000 H       1  UNL1        0.0271
     18 H           5.7227   -0.4147    0.0000 H       1  UNL1        0.0268
     19 H           5.7227    0.4147    0.0000 H       1  UNL1        0.0268
     20 H           4.3996   -1.9479    0.0000 H       1  UNL1        0.0233
     21 H           5.1815   -2.3446    0.0000 H       1  UNL1        0.0233
     22 H           5.5783   -1.5626    0.0000 H       1  UNL1        0.0233
     23 H           1.4631    0.8100    0.0000 H       1  UNL1        0.1030
     24 H           3.4860    2.0000    0.0000 H       1  UNL1        0.0275
     25 H           2.8660    2.6200    0.0000 H       1  UNL1        0.0275
     26 H           2.2460    2.0000    0.0000 H       1  UNL1        0.0275
@<TRIPOS>BOND
     1     1    10    1
     2     1    11    1
     3     2    10    2
     4     3     4    1
     5     3     5    1
     6     3    10    1
     7     3    13    1
     8     4     6    1
     9     4     8    1
    10     4    14    1
    11     5     7    1
    12     5     9    1
    13     5    15    1
    14     6     7    1
    15     6    16    1
    16     6    17    1
    17     7    18    1
    18     7    19    1
    19     8    11    2
    20     8    12    1
    21     9    20    1
    22     9    21    1
    23     9    22    1
    24    11    23    1
    25    12    24    1
    26    12    25    1
    27    12    26    1
