@<TRIPOS>MOLECULE
IMPHY007966
 38 42 0 0 0
SMALL
GASTEIGER

@<TRIPOS>ATOM
      1 O           6.4642    1.5453    0.0000 O.3     1  UNL1       -0.4520
      2 O           6.4642    3.1548    0.0000 O.3     1  UNL1       -0.4526
      3 O           2.0000   -0.1951    0.0000 O.2     1  UNL1       -0.2850
      4 O           6.5085   -1.7869    0.0000 O.3     1  UNL1       -0.4914
      5 O           4.7052   -2.8467    0.0000 O.3     1  UNL1       -0.4914
      6 N           2.0367    1.8714    0.0000 N.ar    1  UNL1       -0.2511
      7 C           4.6520    1.3500    0.0000 C.ar    1  UNL1        0.0382
      8 C           3.7860    1.8500    0.0000 C.ar    1  UNL1        0.0227
      9 C           4.6681    0.3085    0.0000 C.ar    1  UNL1        0.0009
     10 C           5.5180    1.8500    0.0000 C.ar    1  UNL1        0.1746
     11 C           3.7860    2.8500    0.0000 C.ar    1  UNL1       -0.0100
     12 C           3.7700   -0.2192    0.0000 C.ar    1  UNL1        0.0353
     13 C           2.8760    1.3432    0.0000 C.ar    1  UNL1        0.1193
     14 C           5.5180    2.8500    0.0000 C.ar    1  UNL1        0.1674
     15 C           2.8680    0.3016    0.0000 C.2     1  UNL1        0.2125
     16 C           4.6520    3.3500    0.0000 C.ar    1  UNL1       -0.0083
     17 C           5.6200   -0.2121    0.0000 C.ar    1  UNL1       -0.0078
     18 C           3.7617   -1.3042    0.0000 C.ar    1  UNL1       -0.0048
     19 C           2.9278    3.3470    0.0000 C.ar    1  UNL1       -0.0357
     20 C           5.6367   -1.2970    0.0000 C.ar    1  UNL1        0.1621
     21 C           4.7013   -1.8467    0.0000 C.ar    1  UNL1        0.1622
     22 C           7.0479    2.3500    0.0000 C.3     1  UNL1        0.2333
     23 C           2.0623    2.8628    0.0000 C.ar    1  UNL1        0.0290
     24 C           6.5200   -2.7869    0.0000 C.3     1  UNL1        0.0790
     25 C           3.8411   -3.3500    0.0000 C.3     1  UNL1        0.0790
     26 H           4.6520    3.9700    0.0000 H       1  UNL1        0.0661
     27 H           6.1508    0.1082    0.0000 H       1  UNL1        0.0662
     28 H           3.2235   -1.6121    0.0000 H       1  UNL1        0.0663
     29 H           2.9324    3.9669    0.0000 H       1  UNL1        0.0639
     30 H           7.5087    1.9353    0.0000 H       1  UNL1        0.1166
     31 H           7.5087    2.7648    0.0000 H       1  UNL1        0.1166
     32 H           1.5316    3.1833    0.0000 H       1  UNL1        0.0830
     33 H           5.9001   -2.7940    0.0000 H       1  UNL1        0.0660
     34 H           6.5272   -3.4068    0.0000 H       1  UNL1        0.0660
     35 H           7.1400   -2.7797    0.0000 H       1  UNL1        0.0660
     36 H           3.5290   -2.8143    0.0000 H       1  UNL1        0.0660
     37 H           3.3053   -3.6621    0.0000 H       1  UNL1        0.0660
     38 H           4.1531   -3.8858    0.0000 H       1  UNL1        0.0660
@<TRIPOS>BOND
     1     1    10    1
     2     1    22    1
     3     2    14    1
     4     2    22    1
     5     3    15    2
     6     4    20    1
     7     4    24    1
     8     5    21    1
     9     5    25    1
    10     6    13   ar
    11     6    23   ar
    12     7     8   ar
    13     7     9    1
    14     7    10   ar
    15     8    11   ar
    16     8    13   ar
    17     9    12   ar
    18     9    17   ar
    19    10    14   ar
    20    11    16   ar
    21    11    19   ar
    22    12    15    1
    23    12    18   ar
    24    13    15    1
    25    14    16   ar
    26    16    26    1
    27    17    20   ar
    28    17    27    1
    29    18    21   ar
    30    18    28    1
    31    19    23   ar
    32    19    29    1
    33    20    21   ar
    34    22    30    1
    35    22    31    1
    36    23    32    1
    37    24    33    1
    38    24    34    1
    39    24    35    1
    40    25    36    1
    41    25    37    1
    42    25    38    1
