@<TRIPOS>MOLECULE
IMPHY007580
 26 27 0 0 0
SMALL
GASTEIGER

@<TRIPOS>ATOM
      1 O           6.4103    0.5547    0.0000 O.3     1  UNL1       -0.4526
      2 O           6.4103   -1.0547    0.0000 O.3     1  UNL1       -0.4525
      3 O           2.8660   -1.2500    0.0000 O.3     1  UNL1       -0.4947
      4 C           3.7320    0.2500    0.0000 C.ar    1  UNL1        0.0017
      5 C           5.4641    0.2500    0.0000 C.ar    1  UNL1        0.1667
      6 C           5.4641   -0.7500    0.0000 C.ar    1  UNL1        0.1697
      7 C           3.7320   -0.7500    0.0000 C.ar    1  UNL1        0.1272
      8 C           4.5981    0.7500    0.0000 C.ar    1  UNL1       -0.0092
      9 C           2.8660    0.7500    0.0000 C.3     1  UNL1       -0.0062
     10 C           4.5981   -1.2500    0.0000 C.ar    1  UNL1        0.0258
     11 C           6.9939   -0.2500    0.0000 C.3     1  UNL1        0.2332
     12 C           2.8660    1.7500    0.0000 C.2     1  UNL1       -0.0867
     13 C           2.8660   -2.2500    0.0000 C.3     1  UNL1        0.0788
     14 C           2.0000    2.2500    0.0000 C.2     1  UNL1       -0.1023
     15 H           4.5981    1.3700    0.0000 H       1  UNL1        0.0659
     16 H           2.2554    0.8577    0.0000 H       1  UNL1        0.0357
     17 H           2.6540    0.1674    0.0000 H       1  UNL1        0.0357
     18 H           4.5981   -1.8700    0.0000 H       1  UNL1        0.0692
     19 H           7.4548   -0.6647    0.0000 H       1  UNL1        0.1166
     20 H           7.4548    0.1647    0.0000 H       1  UNL1        0.1166
     21 H           3.4030    2.0600    0.0000 H       1  UNL1        0.0570
     22 H           2.2460   -2.2500    0.0000 H       1  UNL1        0.0660
     23 H           2.8660   -2.8700    0.0000 H       1  UNL1        0.0660
     24 H           3.4860   -2.2500    0.0000 H       1  UNL1        0.0660
     25 H           2.0000    2.8700    0.0000 H       1  UNL1        0.0532
     26 H           1.4631    1.9400    0.0000 H       1  UNL1        0.0532
@<TRIPOS>BOND
     1     1     5    1
     2     1    11    1
     3     2     6    1
     4     2    11    1
     5     3     7    1
     6     3    13    1
     7     4     7   ar
     8     4     8   ar
     9     4     9    1
    10     5     6   ar
    11     5     8   ar
    12     6    10   ar
    13     7    10   ar
    14     8    15    1
    15     9    12    1
    16     9    16    1
    17     9    17    1
    18    10    18    1
    19    11    19    1
    20    11    20    1
    21    12    14    2
    22    12    21    1
    23    13    22    1
    24    13    23    1
    25    13    24    1
    26    14    25    1
    27    14    26    1
