@<TRIPOS>MOLECULE
IMPHY005239
 71 73 0 0 0
SMALL
GASTEIGER

@<TRIPOS>ATOM
      1 O           8.1301   -2.6900    0.0000 O.2     1  UNL1       -0.4539
      2 O           6.3817    0.3446    0.0000 O.3     1  UNL1       -0.5055
      3 O           8.1301    0.3100    0.0000 O.2     1  UNL1       -0.2866
      4 O           4.6000   -2.7142    0.0000 O.3     1  UNL1       -0.5062
      5 O           8.9961   -4.1900    0.0000 O.3     1  UNL1       -0.5059
      6 O          12.4602   -2.1900    0.0000 O.3     1  UNL1       -0.5033
      7 O          12.4602   -4.1900    0.0000 O.3     1  UNL1       -0.5032
      8 C           8.9961   -1.1900    0.0000 C.ar    1  UNL1        0.0467
      9 C           7.2641   -1.1900    0.0000 C.ar    1  UNL1        0.1060
     10 C           9.8622   -0.6900    0.0000 C.3     1  UNL1       -0.0021
     11 C           8.9961   -2.1900    0.0000 C.ar    1  UNL1        0.1463
     12 C           7.2641   -2.1900    0.0000 C.ar    1  UNL1        0.1463
     13 C           8.1301   -0.6900    0.0000 C.ar    1  UNL1        0.2001
     14 C           5.4641   -1.1692    0.0000 C.ar    1  UNL1        0.0400
     15 C           6.3701   -0.6553    0.0000 C.ar    1  UNL1        0.1381
     16 C           9.8622    0.3100    0.0000 C.2     1  UNL1       -0.0805
     17 C           9.8622   -2.6900    0.0000 C.ar    1  UNL1        0.0627
     18 C          10.7282    0.8100    0.0000 C.2     1  UNL1       -0.0759
     19 C           6.3701   -2.7247    0.0000 C.ar    1  UNL1        0.0234
     20 C           5.4641   -2.2108    0.0000 C.ar    1  UNL1        0.1273
     21 C           4.6000   -0.6659    0.0000 C.3     1  UNL1       -0.0023
     22 C          10.7282    1.8100    0.0000 C.3     1  UNL1       -0.0286
     23 C          11.5942    2.3100    0.0000 C.3     1  UNL1       -0.0308
     24 C           9.8622   -3.6900    0.0000 C.ar    1  UNL1        0.1312
     25 C          10.7282   -2.1900    0.0000 C.ar    1  UNL1       -0.0023
     26 C          11.5942    0.3100    0.0000 C.3     1  UNL1       -0.0438
     27 C           3.7320   -1.1625    0.0000 C.2     1  UNL1       -0.0807
     28 C          11.5942    3.3100    0.0000 C.2     1  UNL1       -0.0850
     29 C          11.5942   -2.6900    0.0000 C.ar    1  UNL1        0.1591
     30 C          10.7282   -4.1900    0.0000 C.ar    1  UNL1        0.0257
     31 C           2.8680   -0.6592    0.0000 C.2     1  UNL1       -0.0793
     32 C          11.5942   -3.6900    0.0000 C.ar    1  UNL1        0.1618
     33 C          12.4602    3.8100    0.0000 C.2     1  UNL1       -0.0796
     34 C           2.0000   -1.1558    0.0000 C.3     1  UNL1       -0.0440
     35 C           2.8718    0.3408    0.0000 C.3     1  UNL1       -0.0440
     36 C          12.4602    4.8100    0.0000 C.3     1  UNL1       -0.0440
     37 C          13.3263    3.3100    0.0000 C.3     1  UNL1       -0.0440
     38 H          10.0742   -1.2726    0.0000 H       1  UNL1        0.0358
     39 H          10.4727   -0.5823    0.0000 H       1  UNL1        0.0358
     40 H           9.3252    0.6200    0.0000 H       1  UNL1        0.0575
     41 H           6.3773   -3.3446    0.0000 H       1  UNL1        0.0691
     42 H          10.5161    2.3926    0.0000 H       1  UNL1        0.0313
     43 H          10.1176    1.7023    0.0000 H       1  UNL1        0.0313
     44 H           5.0003   -0.1924    0.0000 H       1  UNL1        0.0358
     45 H           4.2033   -0.1894    0.0000 H       1  UNL1        0.0358
     46 H          11.8063    1.7274    0.0000 H       1  UNL1        0.0310
     47 H          12.2048    2.4177    0.0000 H       1  UNL1        0.0310
     48 H          10.7282   -1.5700    0.0000 H       1  UNL1        0.0663
     49 H          11.2842   -0.2269    0.0000 H       1  UNL1        0.0274
     50 H          12.1311   -0.0000    0.0000 H       1  UNL1        0.0274
     51 H          11.9042    0.8469    0.0000 H       1  UNL1        0.0274
     52 H           3.7296   -1.7825    0.0000 H       1  UNL1        0.0575
     53 H          11.0573    3.6200    0.0000 H       1  UNL1        0.0572
     54 H           5.8484    0.6608    0.0000 H       1  UNL1        0.2922
     55 H          10.7282   -4.8100    0.0000 H       1  UNL1        0.0692
     56 H           4.6024   -3.3342    0.0000 H       1  UNL1        0.2921
     57 H           3.4918    0.3384    0.0000 H       1  UNL1        0.0274
     58 H           2.8742    0.9608    0.0000 H       1  UNL1        0.0274
     59 H           2.2518    0.3432    0.0000 H       1  UNL1        0.0274
     60 H           1.6921   -0.6177    0.0000 H       1  UNL1        0.0274
     61 H           1.4619   -1.4638    0.0000 H       1  UNL1        0.0274
     62 H           2.3079   -1.6940    0.0000 H       1  UNL1        0.0274
     63 H           8.9961   -4.8100    0.0000 H       1  UNL1        0.2922
     64 H          13.0802    4.8100    0.0000 H       1  UNL1        0.0274
     65 H          12.4602    5.4300    0.0000 H       1  UNL1        0.0274
     66 H          11.8402    4.8100    0.0000 H       1  UNL1        0.0274
     67 H          13.0163    2.7731    0.0000 H       1  UNL1        0.0274
     68 H          13.8632    3.0000    0.0000 H       1  UNL1        0.0274
     69 H          13.6363    3.8469    0.0000 H       1  UNL1        0.0274
     70 H          12.9972   -2.5000    0.0000 H       1  UNL1        0.2923
     71 H          12.4602   -4.8100    0.0000 H       1  UNL1        0.2923
@<TRIPOS>BOND
     1     1    11   ar
     2     1    12   ar
     3     2    15    1
     4     2    54    1
     5     3    13    2
     6     4    20    1
     7     4    56    1
     8     5    24    1
     9     5    63    1
    10     6    29    1
    11     6    70    1
    12     7    32    1
    13     7    71    1
    14     8    10    1
    15     8    11   ar
    16     8    13   ar
    17     9    12   ar
    18     9    13   ar
    19     9    15   ar
    20    10    16    1
    21    10    38    1
    22    10    39    1
    23    11    17    1
    24    12    19   ar
    25    14    15   ar
    26    14    20   ar
    27    14    21    1
    28    16    18    2
    29    16    40    1
    30    17    24   ar
    31    17    25   ar
    32    18    22    1
    33    18    26    1
    34    19    20   ar
    35    19    41    1
    36    21    27    1
    37    21    44    1
    38    21    45    1
    39    22    23    1
    40    22    42    1
    41    22    43    1
    42    23    28    1
    43    23    46    1
    44    23    47    1
    45    24    30   ar
    46    25    29   ar
    47    25    48    1
    48    26    49    1
    49    26    50    1
    50    26    51    1
    51    27    31    2
    52    27    52    1
    53    28    33    2
    54    28    53    1
    55    29    32   ar
    56    30    32   ar
    57    30    55    1
    58    31    34    1
    59    31    35    1
    60    33    36    1
    61    33    37    1
    62    34    60    1
    63    34    61    1
    64    34    62    1
    65    35    57    1
    66    35    58    1
    67    35    59    1
    68    36    64    1
    69    36    65    1
    70    36    66    1
    71    37    67    1
    72    37    68    1
    73    37    69    1
