@<TRIPOS>MOLECULE
IMPHY016620
 63 62 0 0 0
SMALL
GASTEIGER

@<TRIPOS>ATOM
      1 O           2.5369    0.7500    0.0000 O.3     1  UNL1       -0.3950
      2 C           8.5991    0.2500    0.0000 C.3     1  UNL1       -0.0439
      3 C           9.4651    0.7500    0.0000 C.3     1  UNL1       -0.0505
      4 C          12.0632    0.2500    0.0000 C.3     1  UNL1       -0.0439
      5 C          11.1972    0.7500    0.0000 C.3     1  UNL1       -0.0505
      6 C          10.3312    0.2500    0.0000 C.3     1  UNL1       -0.0526
      7 C           7.7331    0.7500    0.0000 C.3     1  UNL1       -0.0505
      8 C          12.9292    0.7500    0.0000 C.3     1  UNL1       -0.0505
      9 C           6.8671    0.2500    0.0000 C.3     1  UNL1       -0.0526
     10 C           6.0010    0.7500    0.0000 C.3     1  UNL1       -0.0504
     11 C           5.1350    0.2500    0.0000 C.3     1  UNL1       -0.0418
     12 C          13.7953    0.2500    0.0000 C.3     1  UNL1       -0.0526
     13 C           8.5991   -0.7500    0.0000 C.3     1  UNL1       -0.0624
     14 C          12.0632   -0.7500    0.0000 C.3     1  UNL1       -0.0624
     15 C          14.6613    0.7500    0.0000 C.3     1  UNL1       -0.0507
     16 C           4.2690    0.7500    0.0000 C.3     1  UNL1       -0.0271
     17 C          15.5273    0.2500    0.0000 C.3     1  UNL1       -0.0467
     18 C           5.1350   -0.7500    0.0000 C.3     1  UNL1       -0.0623
     19 C           3.4030    0.2500    0.0000 C.3     1  UNL1        0.0444
     20 C          16.3933    0.7500    0.0000 C.3     1  UNL1       -0.0627
     21 C          15.5273   -0.7500    0.0000 C.3     1  UNL1       -0.0627
     22 H           8.0622   -0.0600    0.0000 H       1  UNL1        0.0298
     23 H          12.6002   -0.0600    0.0000 H       1  UNL1        0.0298
     24 H           9.8637    1.2250    0.0000 H       1  UNL1        0.0268
     25 H           9.0666    1.2250    0.0000 H       1  UNL1        0.0268
     26 H          11.5957    1.2250    0.0000 H       1  UNL1        0.0268
     27 H          10.7987    1.2250    0.0000 H       1  UNL1        0.0268
     28 H           9.9326   -0.2249    0.0000 H       1  UNL1        0.0265
     29 H          10.7297   -0.2249    0.0000 H       1  UNL1        0.0265
     30 H           8.1316    1.2250    0.0000 H       1  UNL1        0.0268
     31 H           7.3346    1.2250    0.0000 H       1  UNL1        0.0268
     32 H          13.3278    1.2250    0.0000 H       1  UNL1        0.0268
     33 H          12.5307    1.2250    0.0000 H       1  UNL1        0.0268
     34 H           6.4685   -0.2249    0.0000 H       1  UNL1        0.0265
     35 H           7.2656   -0.2249    0.0000 H       1  UNL1        0.0265
     36 H           6.3996    1.2250    0.0000 H       1  UNL1        0.0268
     37 H           5.6025    1.2250    0.0000 H       1  UNL1        0.0268
     38 H           5.6720   -0.0600    0.0000 H       1  UNL1        0.0299
     39 H          13.3967   -0.2249    0.0000 H       1  UNL1        0.0265
     40 H          14.1938   -0.2249    0.0000 H       1  UNL1        0.0265
     41 H           7.9791   -0.7500    0.0000 H       1  UNL1        0.0232
     42 H           8.5991   -1.3700    0.0000 H       1  UNL1        0.0232
     43 H           9.2191   -0.7500    0.0000 H       1  UNL1        0.0232
     44 H          11.4432   -0.7500    0.0000 H       1  UNL1        0.0232
     45 H          12.0632   -1.3700    0.0000 H       1  UNL1        0.0232
     46 H          12.6832   -0.7500    0.0000 H       1  UNL1        0.0232
     47 H          15.0598    1.2250    0.0000 H       1  UNL1        0.0268
     48 H          14.2628    1.2250    0.0000 H       1  UNL1        0.0268
     49 H           4.6675    1.2250    0.0000 H       1  UNL1        0.0290
     50 H           3.8705    1.2250    0.0000 H       1  UNL1        0.0290
     51 H          15.5273    0.8700    0.0000 H       1  UNL1        0.0295
     52 H           4.5150   -0.7500    0.0000 H       1  UNL1        0.0232
     53 H           5.1350   -1.3700    0.0000 H       1  UNL1        0.0232
     54 H           5.7550   -0.7500    0.0000 H       1  UNL1        0.0232
     55 H           3.0044   -0.2249    0.0000 H       1  UNL1        0.0557
     56 H           3.8015   -0.2249    0.0000 H       1  UNL1        0.0557
     57 H          16.7033    0.2131    0.0000 H       1  UNL1        0.0232
     58 H          16.9303    1.0600    0.0000 H       1  UNL1        0.0232
     59 H          16.0833    1.2869    0.0000 H       1  UNL1        0.0232
     60 H          14.9073   -0.7500    0.0000 H       1  UNL1        0.0232
     61 H          15.5273   -1.3700    0.0000 H       1  UNL1        0.0232
     62 H          16.1473   -0.7500    0.0000 H       1  UNL1        0.0232
     63 H           2.0000    0.4400    0.0000 H       1  UNL1        0.2094
@<TRIPOS>BOND
     1     1    19    1
     2     1    63    1
     3     2     3    1
     4     2     7    1
     5     2    13    1
     6     2    22    1
     7     3     6    1
     8     3    24    1
     9     3    25    1
    10     4     5    1
    11     4     8    1
    12     4    14    1
    13     4    23    1
    14     5     6    1
    15     5    26    1
    16     5    27    1
    17     6    28    1
    18     6    29    1
    19     7     9    1
    20     7    30    1
    21     7    31    1
    22     8    12    1
    23     8    32    1
    24     8    33    1
    25     9    10    1
    26     9    34    1
    27     9    35    1
    28    10    11    1
    29    10    36    1
    30    10    37    1
    31    11    16    1
    32    11    18    1
    33    11    38    1
    34    12    15    1
    35    12    39    1
    36    12    40    1
    37    13    41    1
    38    13    42    1
    39    13    43    1
    40    14    44    1
    41    14    45    1
    42    14    46    1
    43    15    17    1
    44    15    47    1
    45    15    48    1
    46    16    19    1
    47    16    49    1
    48    16    50    1
    49    17    20    1
    50    17    21    1
    51    17    51    1
    52    18    52    1
    53    18    53    1
    54    18    54    1
    55    19    55    1
    56    19    56    1
    57    20    57    1
    58    20    58    1
    59    20    59    1
    60    21    60    1
    61    21    61    1
    62    21    62    1
