@<TRIPOS>MOLECULE
IMPHY009104
 53 56 0 0 0
SMALL
GASTEIGER

@<TRIPOS>ATOM
      1 O           9.6297   -2.3244    0.0000 O.3     1  UNL1       -0.4914
      2 O           7.8264   -3.3841    0.0000 O.3     1  UNL1       -0.4914
      3 O           2.5333    0.8458    0.0000 O.3     1  UNL1       -0.3880
      4 N           7.7732    2.8126    0.0000 N.3     1  UNL1       -0.2949
      5 C           8.6392    2.3126    0.0000 C.3     1  UNL1        0.0148
      6 C           9.3762    2.9797    0.0000 C.3     1  UNL1       -0.0359
      7 C           8.6392    1.3126    0.0000 C.3     1  UNL1       -0.0111
      8 C           7.9824    3.7844    0.0000 C.3     1  UNL1       -0.0004
      9 C           8.9711    3.8875    0.0000 C.3     1  UNL1       -0.0388
     10 C           6.9072    2.3126    0.0000 C.3     1  UNL1        0.0252
     11 C           7.7732    0.8126    0.0000 C.ar    1  UNL1       -0.0331
     12 C           6.9072    1.3126    0.0000 C.ar    1  UNL1       -0.0224
     13 C           7.7893   -0.2289    0.0000 C.ar    1  UNL1       -0.0106
     14 C           5.9972    0.8057    0.0000 C.ar    1  UNL1       -0.0200
     15 C           6.8912   -0.7567    0.0000 C.ar    1  UNL1       -0.0134
     16 C           5.9892   -0.2359    0.0000 C.ar    1  UNL1       -0.0464
     17 C           8.7412   -0.7495    0.0000 C.ar    1  UNL1       -0.0083
     18 C           5.1370    1.3157    0.0000 C.2     1  UNL1       -0.0558
     19 C           6.8829   -1.8416    0.0000 C.ar    1  UNL1       -0.0086
     20 C           8.7579   -1.8344    0.0000 C.ar    1  UNL1        0.1621
     21 C           7.8225   -2.3841    0.0000 C.ar    1  UNL1        0.1621
     22 C           4.2652    0.8258    0.0000 C.2     1  UNL1       -0.0556
     23 C           3.4051    1.3358    0.0000 C.3     1  UNL1        0.0709
     24 C           3.4166    2.3357    0.0000 C.3     1  UNL1       -0.0353
     25 C          10.4899   -1.8144    0.0000 C.3     1  UNL1        0.0790
     26 C           6.9623   -3.8875    0.0000 C.3     1  UNL1        0.0790
     27 H           9.2060    2.0612    0.0000 H       1  UNL1        0.0466
     28 H           9.7417    2.4788    0.0000 H       1  UNL1        0.0281
     29 H           9.9127    3.2904    0.0000 H       1  UNL1        0.0281
     30 H           8.8513    0.7300    0.0000 H       1  UNL1        0.0329
     31 H           9.2498    1.4202    0.0000 H       1  UNL1        0.0329
     32 H           7.9833    4.4044    0.0000 H       1  UNL1        0.0427
     33 H           7.3659    3.8505    0.0000 H       1  UNL1        0.0427
     34 H           9.5607    4.0792    0.0000 H       1  UNL1        0.0278
     35 H           8.8424    4.4940    0.0000 H       1  UNL1        0.0278
     36 H           6.6951    2.8952    0.0000 H       1  UNL1        0.0476
     37 H           6.2966    2.2049    0.0000 H       1  UNL1        0.0476
     38 H           5.4510   -0.5438    0.0000 H       1  UNL1        0.0630
     39 H           9.2721   -0.4293    0.0000 H       1  UNL1        0.0661
     40 H           5.1442    1.9357    0.0000 H       1  UNL1        0.0621
     41 H           6.3447   -2.1496    0.0000 H       1  UNL1        0.0661
     42 H           4.2581    0.2058    0.0000 H       1  UNL1        0.0598
     43 H           3.3979    0.7158    0.0000 H       1  UNL1        0.0635
     44 H           4.0366    2.3285    0.0000 H       1  UNL1        0.0258
     45 H           3.4238    2.9556    0.0000 H       1  UNL1        0.0258
     46 H           2.7967    2.3428    0.0000 H       1  UNL1        0.0258
     47 H          10.8060   -2.3477    0.0000 H       1  UNL1        0.0660
     48 H          11.0232   -1.4982    0.0000 H       1  UNL1        0.0660
     49 H          10.1737   -1.2811    0.0000 H       1  UNL1        0.0660
     50 H           6.6502   -3.3517    0.0000 H       1  UNL1        0.0660
     51 H           6.4265   -4.1995    0.0000 H       1  UNL1        0.0660
     52 H           7.2743   -4.4232    0.0000 H       1  UNL1        0.0660
     53 H           2.0000    1.1620    0.0000 H       1  UNL1        0.2102
@<TRIPOS>BOND
     1     1    20    1
     2     1    25    1
     3     2    21    1
     4     2    26    1
     5     3    23    1
     6     3    53    1
     7     4     5    1
     8     4     8    1
     9     4    10    1
    10     5     6    1
    11     5     7    1
    12     5    27    1
    13     6     9    1
    14     6    28    1
    15     6    29    1
    16     7    11    1
    17     7    30    1
    18     7    31    1
    19     8     9    1
    20     8    32    1
    21     8    33    1
    22     9    34    1
    23     9    35    1
    24    10    12    1
    25    10    36    1
    26    10    37    1
    27    11    12   ar
    28    11    13   ar
    29    12    14   ar
    30    13    15   ar
    31    13    17   ar
    32    14    16   ar
    33    14    18    1
    34    15    16   ar
    35    15    19   ar
    36    16    38    1
    37    17    20   ar
    38    17    39    1
    39    18    22    2
    40    18    40    1
    41    19    21   ar
    42    19    41    1
    43    20    21   ar
    44    22    23    1
    45    22    42    1
    46    23    24    1
    47    23    43    1
    48    24    44    1
    49    24    45    1
    50    24    46    1
    51    25    47    1
    52    25    48    1
    53    25    49    1
    54    26    50    1
    55    26    51    1
    56    26    52    1
