@<TRIPOS>MOLECULE
IMPHY014697
 85 91 0 0 0
SMALL
GASTEIGER

@<TRIPOS>ATOM
      1 O           7.1982    0.8940    0.0000 O.3     1  UNL1       -0.4482
      2 O           7.7312    3.3375    0.0000 O.3     1  UNL1       -0.4885
      3 O           6.6738    3.3344    0.0000 O.3     1  UNL1       -0.4914
      4 O           9.4311    3.7610    0.0000 O.3     1  UNL1       -0.4913
      5 O           5.0588   -3.0106    0.0000 O.3     1  UNL1       -0.4524
      6 O           3.3259   -4.0106    0.0000 O.3     1  UNL1       -0.5033
      7 N           9.7975   -0.6067    0.0000 N.3     1  UNL1       -0.2977
      8 N           2.8660    1.3942    0.0000 N.3     1  UNL1       -0.2978
      9 C           8.9311   -0.1065    0.0000 C.3     1  UNL1        0.0432
     10 C           3.7325    0.8940    0.0000 C.3     1  UNL1        0.0397
     11 C           8.9311    0.8940    0.0000 C.ar    1  UNL1        0.0193
     12 C           4.5989    1.3942    0.0000 C.ar    1  UNL1       -0.0231
     13 C          10.6640   -0.1065    0.0000 C.3     1  UNL1        0.0032
     14 C           9.7975    1.3942    0.0000 C.ar    1  UNL1       -0.0343
     15 C          10.6640    0.8940    0.0000 C.3     1  UNL1       -0.0143
     16 C           8.5245   -1.0097    0.0000 C.3     1  UNL1       -0.0078
     17 C           2.8660    2.3947    0.0000 C.3     1  UNL1        0.0032
     18 C           4.5989    2.3947    0.0000 C.ar    1  UNL1       -0.0378
     19 C           3.7325    2.8949    0.0000 C.3     1  UNL1       -0.0144
     20 C           3.3259   -0.0092    0.0000 C.3     1  UNL1       -0.0078
     21 C           8.0646    1.3942    0.0000 C.ar    1  UNL1        0.1786
     22 C           5.4653    0.8940    0.0000 C.ar    1  UNL1       -0.0107
     23 C           9.7975   -1.6067    0.0000 C.3     1  UNL1       -0.0122
     24 C           9.7975    2.3947    0.0000 C.ar    1  UNL1       -0.0125
     25 C           6.3318    1.3942    0.0000 C.ar    1  UNL1        0.1703
     26 C           5.4653    2.8949    0.0000 C.ar    1  UNL1       -0.0128
     27 C           7.6581   -1.5099    0.0000 C.ar    1  UNL1       -0.0453
     28 C           2.0000    0.8942    0.0000 C.3     1  UNL1       -0.0122
     29 C           8.0646    2.3947    0.0000 C.ar    1  UNL1        0.2045
     30 C           3.3259   -1.0097    0.0000 C.ar    1  UNL1       -0.0419
     31 C           6.3318    2.3947    0.0000 C.ar    1  UNL1        0.1624
     32 C           8.9311    2.8949    0.0000 C.ar    1  UNL1        0.1655
     33 C           6.7917   -1.0097    0.0000 C.ar    1  UNL1       -0.0550
     34 C           7.6581   -2.5104    0.0000 C.ar    1  UNL1       -0.0550
     35 C           4.1924   -1.5099    0.0000 C.ar    1  UNL1       -0.0124
     36 C           2.4595   -1.5099    0.0000 C.ar    1  UNL1       -0.0548
     37 C           4.1924   -2.5104    0.0000 C.ar    1  UNL1        0.1698
     38 C           5.9252   -1.5099    0.0000 C.ar    1  UNL1       -0.0191
     39 C           6.7917   -3.0106    0.0000 C.ar    1  UNL1       -0.0191
     40 C           5.9252   -2.5104    0.0000 C.ar    1  UNL1        0.1286
     41 C           2.4595   -2.5104    0.0000 C.ar    1  UNL1       -0.0162
     42 C           3.3259   -3.0106    0.0000 C.ar    1  UNL1        0.1591
     43 C           7.9138    4.3206    0.0000 C.3     1  UNL1        0.0791
     44 C           6.0310    4.1004    0.0000 C.3     1  UNL1        0.0790
     45 C          10.4311    3.7610    0.0000 C.3     1  UNL1        0.0790
     46 H           8.1000    0.0719    0.0000 H       1  UNL1        0.0516
     47 H           2.9235    0.6330    0.0000 H       1  UNL1        0.0515
     48 H          10.8760   -0.6891    0.0000 H       1  UNL1        0.0430
     49 H          11.2745    0.0012    0.0000 H       1  UNL1        0.0430
     50 H          11.2745    0.7863    0.0000 H       1  UNL1        0.0326
     51 H          10.8760    1.4766    0.0000 H       1  UNL1        0.0326
     52 H           8.6526   -1.6163    0.0000 H       1  UNL1        0.0332
     53 H           8.0646   -0.5939    0.0000 H       1  UNL1        0.0332
     54 H           2.6540    2.9773    0.0000 H       1  UNL1        0.0430
     55 H           2.2554    2.2870    0.0000 H       1  UNL1        0.0430
     56 H           4.1310    3.3699    0.0000 H       1  UNL1        0.0326
     57 H           3.3339    3.3699    0.0000 H       1  UNL1        0.0326
     58 H           2.8964    0.4379    0.0000 H       1  UNL1        0.0332
     59 H           3.9321   -0.1394    0.0000 H       1  UNL1        0.0332
     60 H           5.4653    0.2740    0.0000 H       1  UNL1        0.0659
     61 H           9.1775   -1.6067    0.0000 H       1  UNL1        0.0391
     62 H           9.7975   -2.2267    0.0000 H       1  UNL1        0.0391
     63 H          10.4175   -1.6067    0.0000 H       1  UNL1        0.0391
     64 H          10.3345    2.7047    0.0000 H       1  UNL1        0.0658
     65 H           5.4653    3.5149    0.0000 H       1  UNL1        0.0658
     66 H           1.6900    1.4312    0.0000 H       1  UNL1        0.0391
     67 H           1.4631    0.5842    0.0000 H       1  UNL1        0.0391
     68 H           2.3100    0.3573    0.0000 H       1  UNL1        0.0391
     69 H           6.7917   -0.3897    0.0000 H       1  UNL1        0.0621
     70 H           8.1950   -2.8204    0.0000 H       1  UNL1        0.0621
     71 H           4.7293   -1.1999    0.0000 H       1  UNL1        0.0658
     72 H           1.9225   -1.1999    0.0000 H       1  UNL1        0.0621
     73 H           5.3883   -1.1999    0.0000 H       1  UNL1        0.0654
     74 H           6.7917   -3.6306    0.0000 H       1  UNL1        0.0654
     75 H           1.9225   -2.8204    0.0000 H       1  UNL1        0.0655
     76 H           8.5234    4.2074    0.0000 H       1  UNL1        0.0660
     77 H           8.0270    4.9302    0.0000 H       1  UNL1        0.0660
     78 H           7.3042    4.4339    0.0000 H       1  UNL1        0.0660
     79 H           6.5060    4.4990    0.0000 H       1  UNL1        0.0660
     80 H           5.6325    4.5754    0.0000 H       1  UNL1        0.0660
     81 H           5.5561    3.7019    0.0000 H       1  UNL1        0.0660
     82 H          10.4311    3.1410    0.0000 H       1  UNL1        0.0660
     83 H          11.0511    3.7610    0.0000 H       1  UNL1        0.0660
     84 H          10.4311    4.3810    0.0000 H       1  UNL1        0.0660
     85 H           2.7890   -4.3206    0.0000 H       1  UNL1        0.2923
@<TRIPOS>BOND
     1     1    21    1
     2     1    25    1
     3     2    29    1
     4     2    43    1
     5     3    31    1
     6     3    44    1
     7     4    32    1
     8     4    45    1
     9     5    37    1
    10     5    40    1
    11     6    42    1
    12     6    85    1
    13     7     9    1
    14     7    13    1
    15     7    23    1
    16     8    10    1
    17     8    17    1
    18     8    28    1
    19     9    11    1
    20     9    16    1
    21     9    46    1
    22    10    12    1
    23    10    20    1
    24    10    47    1
    25    11    14   ar
    26    11    21   ar
    27    12    18   ar
    28    12    22   ar
    29    13    15    1
    30    13    48    1
    31    13    49    1
    32    14    15    1
    33    14    24   ar
    34    15    50    1
    35    15    51    1
    36    16    27    1
    37    16    52    1
    38    16    53    1
    39    17    19    1
    40    17    54    1
    41    17    55    1
    42    18    19    1
    43    18    26   ar
    44    19    56    1
    45    19    57    1
    46    20    30    1
    47    20    58    1
    48    20    59    1
    49    21    29   ar
    50    22    25   ar
    51    22    60    1
    52    23    61    1
    53    23    62    1
    54    23    63    1
    55    24    32   ar
    56    24    64    1
    57    25    31   ar
    58    26    31   ar
    59    26    65    1
    60    27    33   ar
    61    27    34   ar
    62    28    66    1
    63    28    67    1
    64    28    68    1
    65    29    32   ar
    66    30    35   ar
    67    30    36   ar
    68    33    38   ar
    69    33    69    1
    70    34    39   ar
    71    34    70    1
    72    35    37   ar
    73    35    71    1
    74    36    41   ar
    75    36    72    1
    76    37    42   ar
    77    38    40   ar
    78    38    73    1
    79    39    40   ar
    80    39    74    1
    81    41    42   ar
    82    41    75    1
    83    43    76    1
    84    43    77    1
    85    43    78    1
    86    44    79    1
    87    44    80    1
    88    44    81    1
    89    45    82    1
    90    45    83    1
    91    45    84    1
