@<TRIPOS>MOLECULE
IMPHY000140
 82 82 0 0 0
SMALL
GASTEIGER

@<TRIPOS>ATOM
      1 O           5.4109    0.4191    0.0000 O.2     1  UNL1       -0.2758
      2 N           8.7418   -0.6433    0.0000 N.3     1  UNL1       -0.3019
      3 N          11.4513    1.8267    0.0000 N.3     1  UNL1       -0.3053
      4 N           8.2418    4.7525    0.0000 N.3     1  UNL1       -0.3053
      5 N           6.0324    1.8267    0.0000 N.am    1  UNL1       -0.3152
      6 C           7.7589   -0.4596    0.0000 C.3     1  UNL1        0.0184
      7 C           7.3976   -1.3920    0.0000 C.3     1  UNL1       -0.0369
      8 C           6.4095   -1.5454    0.0000 C.3     1  UNL1       -0.0516
      9 C           6.9086    0.0669    0.0000 C.3     1  UNL1        0.0395
     10 C           9.7248   -0.4596    0.0000 C.3     1  UNL1        0.0000
     11 C           6.0482   -2.4779    0.0000 C.3     1  UNL1       -0.0530
     12 C          10.5750    0.0669    0.0000 C.3     1  UNL1       -0.0274
     13 C           5.0601   -2.6313    0.0000 C.3     1  UNL1       -0.0531
     14 C          11.1777    0.8649    0.0000 C.3     1  UNL1       -0.0002
     15 C           8.7418   -1.6433    0.0000 C.3     1  UNL1       -0.0125
     16 C           4.6988   -3.5638    0.0000 C.3     1  UNL1       -0.0531
     17 C           6.3060    0.8649    0.0000 C.2     1  UNL1        0.2145
     18 C          11.3591    2.8224    0.0000 C.3     1  UNL1       -0.0014
     19 C          10.9133    3.7176    0.0000 C.3     1  UNL1       -0.0391
     20 C          10.1743    4.3913    0.0000 C.3     1  UNL1       -0.0391
     21 C           3.7106   -3.7172    0.0000 C.3     1  UNL1       -0.0531
     22 C           9.2418    4.7525    0.0000 C.3     1  UNL1       -0.0014
     23 C           7.3094    4.3913    0.0000 C.3     1  UNL1        0.0000
     24 C           6.5704    3.7176    0.0000 C.3     1  UNL1       -0.0246
     25 C           6.1246    2.8224    0.0000 C.3     1  UNL1        0.0127
     26 C           3.3494   -4.6496    0.0000 C.3     1  UNL1       -0.0533
     27 C          12.4471    1.7344    0.0000 C.3     1  UNL1       -0.0128
     28 C           2.3612   -4.8030    0.0000 C.3     1  UNL1       -0.0559
     29 C           8.0581    5.7355    0.0000 C.3     1  UNL1       -0.0128
     30 C           2.0000   -5.7355    0.0000 C.3     1  UNL1       -0.0653
     31 H           8.1725   -1.2022    0.0000 H       1  UNL1        0.0467
     32 H           7.3849   -2.0119    0.0000 H       1  UNL1        0.0280
     33 H           8.0059   -1.5122    0.0000 H       1  UNL1        0.0280
     34 H           6.4222   -0.9256    0.0000 H       1  UNL1        0.0266
     35 H           5.8012   -1.4253    0.0000 H       1  UNL1        0.0266
     36 H           6.3074   -0.0844    0.0000 H       1  UNL1        0.0374
     37 H           7.3263    0.5250    0.0000 H       1  UNL1        0.0374
     38 H           9.5922   -1.0652    0.0000 H       1  UNL1        0.0427
     39 H           9.5008    0.1186    0.0000 H       1  UNL1        0.0427
     40 H           6.0355   -3.0978    0.0000 H       1  UNL1        0.0265
     41 H           6.6565   -2.5981    0.0000 H       1  UNL1        0.0265
     42 H          10.6701   -0.5458    0.0000 H       1  UNL1        0.0290
     43 H          10.1573    0.5250    0.0000 H       1  UNL1        0.0290
     44 H           5.0728   -2.0114    0.0000 H       1  UNL1        0.0265
     45 H           4.4518   -2.5111    0.0000 H       1  UNL1        0.0265
     46 H          11.4877    0.3279    0.0000 H       1  UNL1        0.0427
     47 H          10.6227    1.1412    0.0000 H       1  UNL1        0.0427
     48 H           8.1218   -1.6433    0.0000 H       1  UNL1        0.0391
     49 H           8.7418   -2.2633    0.0000 H       1  UNL1        0.0391
     50 H           9.3618   -1.6433    0.0000 H       1  UNL1        0.0391
     51 H           4.6861   -4.1836    0.0000 H       1  UNL1        0.0265
     52 H           5.3071   -3.6840    0.0000 H       1  UNL1        0.0265
     53 H          11.9499    2.6345    0.0000 H       1  UNL1        0.0426
     54 H          10.7627    2.6528    0.0000 H       1  UNL1        0.0426
     55 H          11.5321    3.7558    0.0000 H       1  UNL1        0.0278
     56 H          10.4186    3.3440    0.0000 H       1  UNL1        0.0278
     57 H          10.7376    4.6504    0.0000 H       1  UNL1        0.0278
     58 H           9.8479    3.8642    0.0000 H       1  UNL1        0.0278
     59 H           3.7234   -3.0973    0.0000 H       1  UNL1        0.0265
     60 H           3.1024   -3.5970    0.0000 H       1  UNL1        0.0265
     61 H           9.6735    5.1976    0.0000 H       1  UNL1        0.0426
     62 H           9.1279    4.1431    0.0000 H       1  UNL1        0.0426
     63 H           7.3285    5.0110    0.0000 H       1  UNL1        0.0427
     64 H           7.6358    3.8642    0.0000 H       1  UNL1        0.0427
     65 H           6.3643    4.3024    0.0000 H       1  UNL1        0.0293
     66 H           7.0651    3.3440    0.0000 H       1  UNL1        0.0293
     67 H           5.7212    3.2933    0.0000 H       1  UNL1        0.0462
     68 H           6.7210    2.6528    0.0000 H       1  UNL1        0.0462
     69 H           5.4150    1.7695    0.0000 H       1  UNL1        0.1487
     70 H           3.3367   -5.2695    0.0000 H       1  UNL1        0.0265
     71 H           3.9576   -4.7698    0.0000 H       1  UNL1        0.0265
     72 H          12.3899    1.1171    0.0000 H       1  UNL1        0.0391
     73 H          13.0644    1.6772    0.0000 H       1  UNL1        0.0391
     74 H          12.5043    2.3518    0.0000 H       1  UNL1        0.0391
     75 H           2.3740   -4.1832    0.0000 H       1  UNL1        0.0263
     76 H           1.7530   -4.6829    0.0000 H       1  UNL1        0.0263
     77 H           8.6675    5.8494    0.0000 H       1  UNL1        0.0391
     78 H           7.9442    6.3450    0.0000 H       1  UNL1        0.0391
     79 H           7.4486    5.6216    0.0000 H       1  UNL1        0.0391
     80 H           1.4219   -5.5115    0.0000 H       1  UNL1        0.0230
     81 H           1.7760   -6.3136    0.0000 H       1  UNL1        0.0230
     82 H           2.5781   -5.9595    0.0000 H       1  UNL1        0.0230
@<TRIPOS>BOND
     1     1    17    2
     2     2     6    1
     3     2    10    1
     4     2    15    1
     5     3    14    1
     6     3    18    1
     7     3    27    1
     8     4    22    1
     9     4    23    1
    10     4    29    1
    11     5    17   am
    12     5    25    1
    13     5    69    1
    14     6     7    1
    15     6     9    1
    16     6    31    1
    17     7     8    1
    18     7    32    1
    19     7    33    1
    20     8    11    1
    21     8    34    1
    22     8    35    1
    23     9    17    1
    24     9    36    1
    25     9    37    1
    26    10    12    1
    27    10    38    1
    28    10    39    1
    29    11    13    1
    30    11    40    1
    31    11    41    1
    32    12    14    1
    33    12    42    1
    34    12    43    1
    35    13    16    1
    36    13    44    1
    37    13    45    1
    38    14    46    1
    39    14    47    1
    40    15    48    1
    41    15    49    1
    42    15    50    1
    43    16    21    1
    44    16    51    1
    45    16    52    1
    46    18    19    1
    47    18    53    1
    48    18    54    1
    49    19    20    1
    50    19    55    1
    51    19    56    1
    52    20    22    1
    53    20    57    1
    54    20    58    1
    55    21    26    1
    56    21    59    1
    57    21    60    1
    58    22    61    1
    59    22    62    1
    60    23    24    1
    61    23    63    1
    62    23    64    1
    63    24    25    1
    64    24    65    1
    65    24    66    1
    66    25    67    1
    67    25    68    1
    68    26    28    1
    69    26    70    1
    70    26    71    1
    71    27    72    1
    72    27    73    1
    73    27    74    1
    74    28    30    1
    75    28    75    1
    76    28    76    1
    77    29    77    1
    78    29    78    1
    79    29    79    1
    80    30    80    1
    81    30    81    1
    82    30    82    1
