@<TRIPOS>MOLECULE
IMPHY015098
 27 28 0 0 0
SMALL
GASTEIGER

@<TRIPOS>ATOM
      1 O           3.2040   -1.7425    0.0000 O.3     1  UNL1       -0.3875
      2 C           5.7890    0.1314    0.0000 C.3     1  UNL1       -0.0229
      3 C           4.3901    0.1225    0.0000 C.3     1  UNL1       -0.0051
      4 C           4.6489    1.0885    0.0000 C.3     1  UNL1       -0.0142
      5 C           3.9123    2.0711    0.0000 C.3     1  UNL1       -0.0400
      6 C           3.1691   -0.7431    0.0000 C.3     1  UNL1        0.0769
      7 C           2.6157    0.7773    0.0000 C.2     1  UNL1       -0.0705
      8 C           6.6550    0.6314    0.0000 C.3     1  UNL1       -0.0589
      9 C           6.2890   -0.7347    0.0000 C.3     1  UNL1       -0.0589
     10 C           2.3400   -0.1839    0.0000 C.2     1  UNL1       -0.0564
     11 C           2.0000    1.5653    0.0000 C.3     1  UNL1       -0.0434
     12 H           4.1701   -0.6985    0.0000 H       1  UNL1        0.0334
     13 H           4.8689    1.9095    0.0000 H       1  UNL1        0.0351
     14 H           4.2301    2.6034    0.0000 H       1  UNL1        0.0275
     15 H           3.2992    2.1630    0.0000 H       1  UNL1        0.0275
     16 H           2.6268   -1.0437    0.0000 H       1  UNL1        0.0640
     17 H           6.9650    0.0944    0.0000 H       1  UNL1        0.0235
     18 H           7.1920    0.9414    0.0000 H       1  UNL1        0.0235
     19 H           6.3450    1.1683    0.0000 H       1  UNL1        0.0235
     20 H           5.7521   -1.0447    0.0000 H       1  UNL1        0.0235
     21 H           6.5990   -1.2716    0.0000 H       1  UNL1        0.0235
     22 H           6.8260   -0.4247    0.0000 H       1  UNL1        0.0235
     23 H           1.7574   -0.3960    0.0000 H       1  UNL1        0.0597
     24 H           2.4886    1.9470    0.0000 H       1  UNL1        0.0274
     25 H           1.6183    2.0539    0.0000 H       1  UNL1        0.0274
     26 H           1.5114    1.1836    0.0000 H       1  UNL1        0.0274
     27 H           2.6782   -2.0711    0.0000 H       1  UNL1        0.2102
@<TRIPOS>BOND
     1     6     1    1
     2     1    27    1
     3     2     3    1
     4     2     4    1
     5     2     8    1
     6     2     9    1
     7     3     5    1
     8     3     6    1
     9     3    12    1
    10     4     5    1
    11     4     7    1
    12     4    13    1
    13     5    14    1
    14     5    15    1
    15     6    10    1
    16     6    16    1
    17     7    10    2
    18     7    11    1
    19     8    17    1
    20     8    18    1
    21     8    19    1
    22     9    20    1
    23     9    21    1
    24     9    22    1
    25    10    23    1
    26    11    24    1
    27    11    25    1
    28    11    26    1
