@<TRIPOS>MOLECULE
IMPHY004117
 32 33 0 0 0
SMALL
GASTEIGER

@<TRIPOS>ATOM
      1 O           4.5981    1.0000    0.0000 O.3     1  UNL1       -0.4568
      2 O           2.8660    1.0000    0.0000 O.2     1  UNL1       -0.2456
      3 C           5.4641    2.5000    0.0000 C.ar    1  UNL1       -0.0103
      4 C           4.5981    2.0000    0.0000 C.3     1  UNL1        0.1178
      5 C           5.4641    3.5000    0.0000 C.ar    1  UNL1       -0.0554
      6 C           6.3301    2.0000    0.0000 C.ar    1  UNL1       -0.0554
      7 C           2.8660   -2.0000    0.0000 C.ar    1  UNL1       -0.0248
      8 C           6.3301    4.0000    0.0000 C.ar    1  UNL1       -0.0614
      9 C           7.1962    2.5000    0.0000 C.ar    1  UNL1       -0.0614
     10 C           7.1962    3.5000    0.0000 C.ar    1  UNL1       -0.0617
     11 C           2.8660   -1.0000    0.0000 C.2     1  UNL1       -0.0478
     12 C           2.0000   -2.5000    0.0000 C.ar    1  UNL1       -0.0546
     13 C           3.7320   -2.5000    0.0000 C.ar    1  UNL1       -0.0546
     14 C           3.7320   -0.5000    0.0000 C.2     1  UNL1        0.0231
     15 C           3.7320    0.5000    0.0000 C.2     1  UNL1        0.3323
     16 C           2.0000   -3.5000    0.0000 C.ar    1  UNL1       -0.0612
     17 C           3.7320   -3.5000    0.0000 C.ar    1  UNL1       -0.0612
     18 C           2.8660   -4.0000    0.0000 C.ar    1  UNL1       -0.0617
     19 H           4.3860    2.5826    0.0000 H       1  UNL1        0.0749
     20 H           3.9875    1.8923    0.0000 H       1  UNL1        0.0749
     21 H           4.9272    3.8100    0.0000 H       1  UNL1        0.0621
     22 H           6.3301    1.3800    0.0000 H       1  UNL1        0.0621
     23 H           6.3301    4.6200    0.0000 H       1  UNL1        0.0618
     24 H           7.7331    2.1900    0.0000 H       1  UNL1        0.0618
     25 H           7.7331    3.8100    0.0000 H       1  UNL1        0.0618
     26 H           2.3291   -0.6900    0.0000 H       1  UNL1        0.0626
     27 H           1.4631   -2.1900    0.0000 H       1  UNL1        0.0623
     28 H           4.2690   -2.1900    0.0000 H       1  UNL1        0.0623
     29 H           4.2690   -0.8100    0.0000 H       1  UNL1        0.0689
     30 H           1.4631   -3.8100    0.0000 H       1  UNL1        0.0618
     31 H           4.2690   -3.8100    0.0000 H       1  UNL1        0.0618
     32 H           2.8660   -4.6200    0.0000 H       1  UNL1        0.0618
@<TRIPOS>BOND
     1     1     4    1
     2     1    15    1
     3     2    15    2
     4     3     4    1
     5     3     5   ar
     6     3     6   ar
     7     4    19    1
     8     4    20    1
     9     5     8   ar
    10     5    21    1
    11     6     9   ar
    12     6    22    1
    13     7    11    1
    14     7    12   ar
    15     7    13   ar
    16     8    10   ar
    17     8    23    1
    18     9    10   ar
    19     9    24    1
    20    10    25    1
    21    11    14    2
    22    11    26    1
    23    12    16   ar
    24    12    27    1
    25    13    17   ar
    26    13    28    1
    27    14    15    1
    28    14    29    1
    29    16    18   ar
    30    16    30    1
    31    17    18   ar
    32    17    31    1
    33    18    32    1
