@<TRIPOS>MOLECULE
IMPHY000374
 37 38 0 0 0
SMALL
GASTEIGER

@<TRIPOS>ATOM
      1 O           5.6808    1.9661    0.0000 O.3     1  UNL1       -0.4583
      2 O           7.1753    0.9955    0.0000 O.2     1  UNL1       -0.2508
      3 C           4.5981    0.7637    0.0000 C.3     1  UNL1        0.0125
      4 C           4.7026    1.7582    0.0000 C.3     1  UNL1        0.1116
      5 C           5.5116    0.3569    0.0000 C.3     1  UNL1        0.0517
      6 C           3.7320    0.2637    0.0000 C.3     1  UNL1       -0.0202
      7 C           4.4947    2.7363    0.0000 C.3     1  UNL1       -0.0248
      8 C           3.7081    1.8627    0.0000 C.3     1  UNL1       -0.0248
      9 C           6.1808    1.1001    0.0000 C.2     1  UNL1        0.3080
     10 C           3.7320   -0.7363    0.0000 C.ar    1  UNL1       -0.0411
     11 C           2.8660   -1.2363    0.0000 C.ar    1  UNL1       -0.0470
     12 C           4.5981   -1.2363    0.0000 C.ar    1  UNL1       -0.0470
     13 C           2.8660   -2.2363    0.0000 C.ar    1  UNL1       -0.0586
     14 C           4.5981   -2.2363    0.0000 C.ar    1  UNL1       -0.0586
     15 C           2.0000   -0.7363    0.0000 C.3     1  UNL1       -0.0394
     16 C           5.4641   -0.7363    0.0000 C.3     1  UNL1       -0.0394
     17 C           3.7320   -2.7363    0.0000 C.ar    1  UNL1       -0.0612
     18 H           4.0781    1.1013    0.0000 H       1  UNL1        0.0347
     19 H           5.2016   -0.1800    0.0000 H       1  UNL1        0.0382
     20 H           6.0132   -0.0075    0.0000 H       1  UNL1        0.0382
     21 H           3.5200    0.8463    0.0000 H       1  UNL1        0.0317
     22 H           3.1215    0.1560    0.0000 H       1  UNL1        0.0317
     23 H           5.1011    2.8652    0.0000 H       1  UNL1        0.0268
     24 H           4.3658    3.3428    0.0000 H       1  UNL1        0.0268
     25 H           3.8882    2.6074    0.0000 H       1  UNL1        0.0268
     26 H           3.7729    2.4793    0.0000 H       1  UNL1        0.0268
     27 H           3.0915    1.9275    0.0000 H       1  UNL1        0.0268
     28 H           3.6433    1.2461    0.0000 H       1  UNL1        0.0268
     29 H           2.3291   -2.5463    0.0000 H       1  UNL1        0.0620
     30 H           5.1350   -2.5463    0.0000 H       1  UNL1        0.0620
     31 H           2.3100   -0.1994    0.0000 H       1  UNL1        0.0278
     32 H           1.4631   -0.4263    0.0000 H       1  UNL1        0.0278
     33 H           1.6900   -1.2733    0.0000 H       1  UNL1        0.0278
     34 H           5.7741   -1.2733    0.0000 H       1  UNL1        0.0278
     35 H           6.0010   -0.4263    0.0000 H       1  UNL1        0.0278
     36 H           5.1541   -0.1994    0.0000 H       1  UNL1        0.0278
     37 H           3.7320   -3.3563    0.0000 H       1  UNL1        0.0618
@<TRIPOS>BOND
     1     1     4    1
     2     1     9    1
     3     2     9    2
     4     3     4    1
     5     3     5    1
     6     3     6    1
     7     3    18    1
     8     4     7    1
     9     4     8    1
    10     5     9    1
    11     5    19    1
    12     5    20    1
    13     6    10    1
    14     6    21    1
    15     6    22    1
    16     7    23    1
    17     7    24    1
    18     7    25    1
    19     8    26    1
    20     8    27    1
    21     8    28    1
    22    10    11   ar
    23    10    12   ar
    24    11    13   ar
    25    11    15    1
    26    12    14   ar
    27    12    16    1
    28    13    17   ar
    29    13    29    1
    30    14    17   ar
    31    14    30    1
    32    15    31    1
    33    15    32    1
    34    15    33    1
    35    16    34    1
    36    16    35    1
    37    16    36    1
    38    17    37    1
