@<TRIPOS>MOLECULE
IMPHY008365
 42 45 0 0 0
SMALL
GASTEIGER

@<TRIPOS>ATOM
      1 O           5.5301   -1.7379    0.0000 O.2     1  UNL1       -0.4620
      2 O           9.9404   -0.0427    0.0000 O.3     1  UNL1       -0.4526
      3 O           9.9404    1.5668    0.0000 O.3     1  UNL1       -0.4525
      4 O           6.3961    1.7621    0.0000 O.3     1  UNL1       -0.4944
      5 O           2.0000    0.2862    0.0000 O.3     1  UNL1       -0.4914
      6 O           5.5301    1.2621    0.0000 O.2     1  UNL1       -0.2864
      7 O           2.0000   -1.7621    0.0000 O.3     1  UNL1       -0.4913
      8 C           7.2622    0.2621    0.0000 C.ar    1  UNL1        0.0341
      9 C           6.3961   -0.2379    0.0000 C.ar    1  UNL1        0.0679
     10 C           4.6641   -0.2379    0.0000 C.ar    1  UNL1        0.0682
     11 C           5.5301    0.2621    0.0000 C.ar    1  UNL1        0.2004
     12 C           7.2622    1.2621    0.0000 C.ar    1  UNL1        0.1317
     13 C           8.9942    0.2621    0.0000 C.ar    1  UNL1        0.1670
     14 C           8.1282   -0.2379    0.0000 C.ar    1  UNL1       -0.0047
     15 C           8.9942    1.2621    0.0000 C.ar    1  UNL1        0.1697
     16 C           4.6641   -1.2379    0.0000 C.ar    1  UNL1        0.1421
     17 C           8.1282    1.7621    0.0000 C.ar    1  UNL1        0.0262
     18 C           6.3961   -1.2379    0.0000 C.ar    1  UNL1        0.1040
     19 C           3.7702    0.2967    0.0000 C.ar    1  UNL1       -0.0019
     20 C           3.7702   -1.7726    0.0000 C.ar    1  UNL1        0.0267
     21 C           2.8641   -0.2171    0.0000 C.ar    1  UNL1        0.1624
     22 C           2.8641   -1.2587    0.0000 C.ar    1  UNL1        0.1650
     23 C          10.5241    0.7621    0.0000 C.3     1  UNL1        0.2332
     24 C           6.3961    2.7621    0.0000 C.3     1  UNL1        0.0788
     25 C           2.0038    1.2862    0.0000 C.3     1  UNL1        0.0790
     26 C           2.0038   -2.7621    0.0000 C.3     1  UNL1        0.0790
     27 H           8.1282   -0.8579    0.0000 H       1  UNL1        0.0663
     28 H           8.1282    2.3821    0.0000 H       1  UNL1        0.0692
     29 H           6.9331   -1.5479    0.0000 H       1  UNL1        0.1037
     30 H           3.7773    0.9167    0.0000 H       1  UNL1        0.0663
     31 H           3.7773   -2.3926    0.0000 H       1  UNL1        0.0692
     32 H          10.9849    0.3473    0.0000 H       1  UNL1        0.1166
     33 H          10.9849    1.1768    0.0000 H       1  UNL1        0.1166
     34 H           7.0162    2.7621    0.0000 H       1  UNL1        0.0660
     35 H           6.3961    3.3821    0.0000 H       1  UNL1        0.0660
     36 H           5.7762    2.7621    0.0000 H       1  UNL1        0.0660
     37 H           2.6238    1.2838    0.0000 H       1  UNL1        0.0660
     38 H           2.0062    1.9062    0.0000 H       1  UNL1        0.0660
     39 H           1.3839    1.2886    0.0000 H       1  UNL1        0.0660
     40 H           1.3839   -2.7645    0.0000 H       1  UNL1        0.0660
     41 H           2.0062   -3.3821    0.0000 H       1  UNL1        0.0660
     42 H           2.6238   -2.7597    0.0000 H       1  UNL1        0.0660
@<TRIPOS>BOND
     1     1    16   ar
     2     1    18   ar
     3     2    13    1
     4     2    23    1
     5     3    15    1
     6     3    23    1
     7     4    12    1
     8     4    24    1
     9     5    21    1
    10     5    25    1
    11     6    11    2
    12     7    22    1
    13     7    26    1
    14     8     9    1
    15     8    12   ar
    16     8    14   ar
    17     9    11   ar
    18     9    18   ar
    19    10    11   ar
    20    10    16   ar
    21    10    19   ar
    22    12    17   ar
    23    13    14   ar
    24    13    15   ar
    25    14    27    1
    26    15    17   ar
    27    16    20   ar
    28    17    28    1
    29    18    29    1
    30    19    21   ar
    31    19    30    1
    32    20    22   ar
    33    20    31    1
    34    21    22   ar
    35    23    32    1
    36    23    33    1
    37    24    34    1
    38    24    35    1
    39    24    36    1
    40    25    37    1
    41    25    38    1
    42    25    39    1
    43    26    40    1
    44    26    41    1
    45    26    42    1
