@<TRIPOS>MOLECULE
IMPHY005864
 51 52 0 0 0
SMALL
GASTEIGER

@<TRIPOS>ATOM
      1 O           7.8965   -3.4461    0.0000 O.co2   1  UNL1       -0.7743
      2 O           9.1534   -0.1909    0.0000 O.3     1  UNL1       -0.3857
      3 O           5.6583    0.0219    0.0000 O.3     1  UNL1       -0.4579
      4 O           4.1632    0.2027    0.0000 O.3     1  UNL1       -0.3734
      5 O           2.4149    1.5966    0.0000 O.3     1  UNL1       -0.3856
      6 O           5.5301    2.4680    0.0000 O.3     1  UNL1       -0.3765
      7 O           6.0184    1.7160    0.0000 O.2     1  UNL1       -0.2474
      8 N           7.8965   -2.4461    0.0000 N.3     1  UNL1        0.2272
      9 C           7.8965   -1.4461    0.0000 C.3     1  UNL1        0.0305
     10 C           8.8428   -1.1414    0.0000 C.3     1  UNL1        0.1065
     11 C           8.8428   -2.7509    0.0000 C.3     1  UNL1       -0.0291
     12 C           9.4264   -1.9461    0.0000 C.3     1  UNL1        0.0191
     13 C           6.9455   -2.7552    0.0000 C.3     1  UNL1       -0.0126
     14 C           6.9455   -1.1371    0.0000 C.2     1  UNL1        0.0183
     15 C           6.3577   -1.9461    0.0000 C.2     1  UNL1       -0.0317
     16 C           6.6365   -0.1861    0.0000 C.3     1  UNL1        0.1190
     17 C           4.3712    1.1808    0.0000 C.3     1  UNL1        0.2164
     18 C           3.3930    1.3887    0.0000 C.3     1  UNL1        0.1020
     19 C           5.3493    0.9729    0.0000 C.2     1  UNL1        0.3450
     20 C           4.5791    2.1590    0.0000 C.3     1  UNL1        0.0974
     21 C           3.0840    2.3398    0.0000 C.3     1  UNL1       -0.0330
     22 C           3.1851    0.4106    0.0000 C.3     1  UNL1       -0.0330
     23 C           4.2700    3.1100    0.0000 C.3     1  UNL1       -0.0353
     24 C           5.7380    3.4461    0.0000 C.3     1  UNL1        0.0369
     25 H           7.8976   -0.5961    0.0000 H       1  UNL1        0.0927
     26 H           9.4552   -1.0452    0.0000 H       1  UNL1        0.0655
     27 H           8.5917   -3.3178    0.0000 H       1  UNL1        0.0814
     28 H           9.3801   -3.0601    0.0000 H       1  UNL1        0.0814
     29 H           9.8872   -2.3609    0.0000 H       1  UNL1        0.0344
     30 H           9.8872   -1.5314    0.0000 H       1  UNL1        0.0344
     31 H           6.4086   -3.0652    0.0000 H       1  UNL1        0.0861
     32 H           7.1977   -3.3216    0.0000 H       1  UNL1        0.0861
     33 H           5.7377   -1.9461    0.0000 H       1  UNL1        0.0627
     34 H           7.2504   -0.0998    0.0000 H       1  UNL1        0.0747
     35 H           6.6581    0.4336    0.0000 H       1  UNL1        0.0747
     36 H           9.7601   -0.0630    0.0000 H       1  UNL1        0.2101
     37 H           5.0398    1.7441    0.0000 H       1  UNL1        0.0628
     38 H           3.6736    2.5314    0.0000 H       1  UNL1        0.0258
     39 H           2.8924    2.9294    0.0000 H       1  UNL1        0.0258
     40 H           2.4943    2.1482    0.0000 H       1  UNL1        0.0258
     41 H           2.5786    0.5395    0.0000 H       1  UNL1        0.0258
     42 H           3.0562   -0.1959    0.0000 H       1  UNL1        0.0258
     43 H           3.7916    0.2817    0.0000 H       1  UNL1        0.0258
     44 H           4.8597    3.3016    0.0000 H       1  UNL1        0.0256
     45 H           4.0785    3.6997    0.0000 H       1  UNL1        0.0256
     46 H           3.6804    2.9184    0.0000 H       1  UNL1        0.0256
     47 H           4.6240   -0.2122    0.0000 H       1  UNL1        0.2111
     48 H           2.0000    1.1359    0.0000 H       1  UNL1        0.2103
     49 H           6.3445    3.3172    0.0000 H       1  UNL1        0.0524
     50 H           5.8669    4.0526    0.0000 H       1  UNL1        0.0524
     51 H           5.1316    3.5750    0.0000 H       1  UNL1        0.0524
@<TRIPOS>UNITY_ATOM_ATTR
1 1
charge -1
8 1
charge 1
@<TRIPOS>BOND
     1     1     8    1
     2    10     2    1
     3     2    36    1
     4     3    16    1
     5     3    19    1
     6    17     4    1
     7     4    47    1
     8     5    18    1
     9     5    48    1
    10    20     6    1
    11     6    24    1
    12     7    19    2
    13     8     9    1
    14     8    11    1
    15     8    13    1
    16     9    10    1
    17     9    14    1
    18     9    25    1
    19    10    12    1
    20    10    26    1
    21    11    12    1
    22    11    27    1
    23    11    28    1
    24    12    29    1
    25    12    30    1
    26    13    15    1
    27    13    31    1
    28    13    32    1
    29    14    15    2
    30    14    16    1
    31    15    33    1
    32    16    34    1
    33    16    35    1
    34    17    18    1
    35    17    19    1
    36    17    20    1
    37    18    21    1
    38    18    22    1
    39    20    23    1
    40    20    37    1
    41    21    38    1
    42    21    39    1
    43    21    40    1
    44    22    41    1
    45    22    42    1
    46    22    43    1
    47    23    44    1
    48    23    45    1
    49    23    46    1
    50    24    49    1
    51    24    50    1
    52    24    51    1
