@<TRIPOS>MOLECULE
IMPHY001315
 29 31 0 0 0
SMALL
GASTEIGER

@<TRIPOS>ATOM
      1 O           4.6660   -0.7500    0.0000 O.3     1  UNL1       -0.4831
      2 O           4.6660    2.2500    0.0000 O.2     1  UNL1       -0.2918
      3 C           5.5321   -0.2500    0.0000 C.3     1  UNL1        0.1322
      4 C           5.5321    0.7500    0.0000 C.3     1  UNL1        0.0519
      5 C           6.3981   -0.7500    0.0000 C.ar    1  UNL1       -0.0069
      6 C           4.6660    1.2500    0.0000 C.2     1  UNL1        0.1705
      7 C           3.8000    0.7500    0.0000 C.ar    1  UNL1        0.0592
      8 C           3.8000   -0.2500    0.0000 C.ar    1  UNL1        0.1319
      9 C           6.3981   -1.7500    0.0000 C.ar    1  UNL1       -0.0551
     10 C           7.2641   -0.2500    0.0000 C.ar    1  UNL1       -0.0551
     11 C           2.9061    1.2847    0.0000 C.ar    1  UNL1       -0.0477
     12 C           2.9061   -0.7847    0.0000 C.ar    1  UNL1       -0.0192
     13 C           2.0000    0.7708    0.0000 C.ar    1  UNL1       -0.0609
     14 C           2.0000   -0.2708    0.0000 C.ar    1  UNL1       -0.0583
     15 C           7.2641   -2.2500    0.0000 C.ar    1  UNL1       -0.0614
     16 C           8.1301   -0.7500    0.0000 C.ar    1  UNL1       -0.0614
     17 C           8.1301   -1.7500    0.0000 C.ar    1  UNL1       -0.0617
     18 H           5.5321   -0.8700    0.0000 H       1  UNL1        0.0789
     19 H           6.1426    0.6423    0.0000 H       1  UNL1        0.0385
     20 H           5.7441    1.3326    0.0000 H       1  UNL1        0.0385
     21 H           5.8612   -2.0600    0.0000 H       1  UNL1        0.0621
     22 H           7.2641    0.3700    0.0000 H       1  UNL1        0.0621
     23 H           2.9132    1.9046    0.0000 H       1  UNL1        0.0626
     24 H           2.9132   -1.4046    0.0000 H       1  UNL1        0.0654
     25 H           1.4643    1.0829    0.0000 H       1  UNL1        0.0618
     26 H           1.4643   -0.5829    0.0000 H       1  UNL1        0.0619
     27 H           7.2641   -2.8700    0.0000 H       1  UNL1        0.0618
     28 H           8.6671   -0.4400    0.0000 H       1  UNL1        0.0618
     29 H           8.6671   -2.0600    0.0000 H       1  UNL1        0.0618
@<TRIPOS>BOND
     1     1     3    1
     2     1     8    1
     3     2     6    2
     4     3     4    1
     5     3     5    1
     6     3    18    1
     7     4     6    1
     8     4    19    1
     9     4    20    1
    10     5     9   ar
    11     5    10   ar
    12     6     7    1
    13     7     8   ar
    14     7    11   ar
    15     8    12   ar
    16     9    15   ar
    17     9    21    1
    18    10    16   ar
    19    10    22    1
    20    11    13   ar
    21    11    23    1
    22    12    14   ar
    23    12    24    1
    24    13    14   ar
    25    13    25    1
    26    14    26    1
    27    15    17   ar
    28    15    27    1
    29    16    17   ar
    30    16    28    1
    31    17    29    1
