@<TRIPOS>MOLECULE
IMPHY006003
 24 24 0 0 0
SMALL
GASTEIGER

@<TRIPOS>ATOM
      1 O           3.7320    1.5000    0.0000 O.3     1  UNL1       -0.4645
      2 O           5.4641    1.5000    0.0000 O.2     1  UNL1       -0.2512
      3 C           2.8660    0.0000    0.0000 C.3     1  UNL1        0.0067
      4 C           2.8660   -1.0000    0.0000 C.ar    1  UNL1       -0.0442
      5 C           3.7320    0.5000    0.0000 C.3     1  UNL1        0.0964
      6 C           2.0000   -1.5000    0.0000 C.ar    1  UNL1       -0.0585
      7 C           3.7320   -1.5000    0.0000 C.ar    1  UNL1       -0.0585
      8 C           2.0000   -2.5000    0.0000 C.ar    1  UNL1       -0.0615
      9 C           3.7320   -2.5000    0.0000 C.ar    1  UNL1       -0.0615
     10 C           2.8660   -3.0000    0.0000 C.ar    1  UNL1       -0.0617
     11 C           4.5981    2.0000    0.0000 C.2     1  UNL1        0.3040
     12 C           4.5981    3.0000    0.0000 C.3     1  UNL1        0.0332
     13 H           2.6540    0.5826    0.0000 H       1  UNL1        0.0346
     14 H           2.2554   -0.1077    0.0000 H       1  UNL1        0.0346
     15 H           3.9441   -0.0826    0.0000 H       1  UNL1        0.0701
     16 H           4.3426    0.6077    0.0000 H       1  UNL1        0.0701
     17 H           1.4631   -1.1900    0.0000 H       1  UNL1        0.0620
     18 H           4.2690   -1.1900    0.0000 H       1  UNL1        0.0620
     19 H           1.4631   -2.8100    0.0000 H       1  UNL1        0.0618
     20 H           4.2690   -2.8100    0.0000 H       1  UNL1        0.0618
     21 H           2.8660   -3.6200    0.0000 H       1  UNL1        0.0618
     22 H           5.2181    3.0000    0.0000 H       1  UNL1        0.0342
     23 H           4.5981    3.6200    0.0000 H       1  UNL1        0.0342
     24 H           3.9781    3.0000    0.0000 H       1  UNL1        0.0342
@<TRIPOS>BOND
     1     1     5    1
     2     1    11    1
     3     2    11    2
     4     3     4    1
     5     3     5    1
     6     3    13    1
     7     3    14    1
     8     4     6   ar
     9     4     7   ar
    10     5    15    1
    11     5    16    1
    12     6     8   ar
    13     6    17    1
    14     7     9   ar
    15     7    18    1
    16     8    10   ar
    17     8    19    1
    18     9    10   ar
    19     9    20    1
    20    10    21    1
    21    11    12    1
    22    12    22    1
    23    12    23    1
    24    12    24    1
