@<TRIPOS>MOLECULE
IMPHY001506
 46 49 0 0 0
SMALL
GASTEIGER

@<TRIPOS>ATOM
      1 O           4.4455   -0.7881    0.0000 O.3     1  UNL1       -0.4562
      2 O           9.7477    0.2295    0.0000 O.3     1  UNL1       -0.3872
      3 O           6.2237    2.2641    0.0000 O.2     1  UNL1       -0.2924
      4 O           5.3631   -2.3019    0.0000 O.2     1  UNL1       -0.2505
      5 O           2.0000    1.0993    0.0000 O.2     1  UNL1       -0.4706
      6 C           6.2455    0.2327    0.0000 C.3     1  UNL1       -0.0051
      7 C           7.1115    0.7327    0.0000 C.3     1  UNL1        0.0358
      8 C           7.9775    0.2327    0.0000 C.3     1  UNL1        0.0078
      9 C           6.2455   -0.7673    0.0000 C.3     1  UNL1        0.0626
     10 C           7.9775   -0.7673    0.0000 C.3     1  UNL1       -0.0435
     11 C           7.1115   -1.2673    0.0000 C.3     1  UNL1       -0.0390
     12 C           5.3515    0.7673    0.0000 C.3     1  UNL1       -0.0045
     13 C           8.8875    0.7395    0.0000 C.3     1  UNL1        0.0798
     14 C           6.2455    1.2327    0.0000 C.3     1  UNL1       -0.0580
     15 C           8.8435   -0.2673    0.0000 C.3     1  UNL1       -0.0562
     16 C           7.0954    1.7742    0.0000 C.2     1  UNL1        0.1601
     17 C           4.4455    0.2535    0.0000 C.3     1  UNL1        0.1315
     18 C           5.3515   -1.3020    0.0000 C.2     1  UNL1        0.3113
     19 C           8.8956    1.7811    0.0000 C.2     1  UNL1       -0.0521
     20 C           7.9935    2.3019    0.0000 C.2     1  UNL1       -0.0204
     21 C           3.5814    0.7568    0.0000 C.ar    1  UNL1        0.0304
     22 C           3.4807    1.7517    0.0000 C.ar    1  UNL1       -0.0172
     23 C           2.6663    0.3536    0.0000 C.ar    1  UNL1        0.0983
     24 C           2.5033    1.9634    0.0000 C.ar    1  UNL1        0.0921
     25 H           7.8443    1.1633    0.0000 H       1  UNL1        0.0392
     26 H           6.2520   -1.6173    0.0000 H       1  UNL1        0.0419
     27 H           8.1896   -1.3499    0.0000 H       1  UNL1        0.0272
     28 H           8.5881   -0.6597    0.0000 H       1  UNL1        0.0272
     29 H           6.7130   -1.7423    0.0000 H       1  UNL1        0.0273
     30 H           7.5100   -1.7423    0.0000 H       1  UNL1        0.0273
     31 H           5.7561    1.2371    0.0000 H       1  UNL1        0.0310
     32 H           4.9579    1.2464    0.0000 H       1  UNL1        0.0310
     33 H           9.4274    1.0443    0.0000 H       1  UNL1        0.0643
     34 H           6.8655    1.2327    0.0000 H       1  UNL1        0.0235
     35 H           6.2455    1.8527    0.0000 H       1  UNL1        0.0235
     36 H           5.6255    1.2327    0.0000 H       1  UNL1        0.0235
     37 H           8.5335   -0.8043    0.0000 H       1  UNL1        0.0236
     38 H           9.3805   -0.5773    0.0000 H       1  UNL1        0.0236
     39 H           9.1535    0.2696    0.0000 H       1  UNL1        0.0236
     40 H           3.9079   -0.0555    0.0000 H       1  UNL1        0.0786
     41 H           9.4337    2.0890    0.0000 H       1  UNL1        0.0599
     42 H           7.9911    2.9219    0.0000 H       1  UNL1        0.0650
     43 H          10.2882    0.5333    0.0000 H       1  UNL1        0.2102
     44 H           3.9430    2.1648    0.0000 H       1  UNL1        0.0653
     45 H           2.5350   -0.2523    0.0000 H       1  UNL1        0.1033
     46 H           2.2533    2.5308    0.0000 H       1  UNL1        0.1029
@<TRIPOS>BOND
     1     1    17    1
     2     1    18    1
     3    13     2    1
     4     2    43    1
     5     3    16    2
     6     4    18    2
     7     5    23   ar
     8     5    24   ar
     9     6     7    1
    10     6     9    1
    11     6    12    1
    12     6    14    1
    13     7     8    1
    14     7    16    1
    15     7    25    1
    16     8    10    1
    17     8    13    1
    18     8    15    1
    19     9    11    1
    20     9    18    1
    21     9    26    1
    22    10    11    1
    23    10    27    1
    24    10    28    1
    25    11    29    1
    26    11    30    1
    27    12    17    1
    28    12    31    1
    29    12    32    1
    30    13    19    1
    31    13    33    1
    32    14    34    1
    33    14    35    1
    34    14    36    1
    35    15    37    1
    36    15    38    1
    37    15    39    1
    38    16    20    1
    39    17    21    1
    40    17    40    1
    41    19    20    2
    42    19    41    1
    43    20    42    1
    44    21    22   ar
    45    21    23   ar
    46    22    24   ar
    47    22    44    1
    48    23    45    1
    49    24    46    1
