@<TRIPOS>MOLECULE
IMPHY008134
 33 35 0 0 0
SMALL
GASTEIGER

@<TRIPOS>ATOM
      1 O           4.6660    2.0000    0.0000 O.2     1  UNL1       -0.2651
      2 N           4.6660   -1.0000    0.0000 N.ar    1  UNL1       -0.3313
      3 N           5.5321    0.5000    0.0000 N.ar    1  UNL1       -0.1950
      4 C           5.5321   -0.5000    0.0000 C.ar    1  UNL1        0.1181
      5 C           3.8000   -0.5000    0.0000 C.ar    1  UNL1        0.0553
      6 C           6.3981   -1.0000    0.0000 C.3     1  UNL1        0.0309
      7 C           3.8000    0.5000    0.0000 C.ar    1  UNL1        0.0647
      8 C           7.2641   -0.5000    0.0000 C.ar    1  UNL1       -0.0401
      9 C           4.6660   -2.0000    0.0000 C.3     1  UNL1        0.0135
     10 C           2.9061   -1.0347    0.0000 C.ar    1  UNL1       -0.0374
     11 C           4.6660    1.0000    0.0000 C.ar    1  UNL1        0.2810
     12 C           2.9061    1.0347    0.0000 C.ar    1  UNL1       -0.0474
     13 C           2.0000   -0.5208    0.0000 C.ar    1  UNL1       -0.0598
     14 C           8.1301   -1.0000    0.0000 C.ar    1  UNL1       -0.0582
     15 C           7.2641    0.5000    0.0000 C.ar    1  UNL1       -0.0582
     16 C           2.0000    0.5208    0.0000 C.ar    1  UNL1       -0.0609
     17 C           8.9962   -0.5000    0.0000 C.ar    1  UNL1       -0.0615
     18 C           8.1301    1.0000    0.0000 C.ar    1  UNL1       -0.0615
     19 C           8.9962    0.5000    0.0000 C.ar    1  UNL1       -0.0617
     20 H           5.9996   -1.4750    0.0000 H       1  UNL1        0.0392
     21 H           6.7966   -1.4750    0.0000 H       1  UNL1        0.0392
     22 H           4.0460   -2.0000    0.0000 H       1  UNL1        0.0456
     23 H           4.6660   -2.6200    0.0000 H       1  UNL1        0.0456
     24 H           5.2860   -2.0000    0.0000 H       1  UNL1        0.0456
     25 H           2.9132   -1.6546    0.0000 H       1  UNL1        0.0638
     26 H           2.9132    1.6546    0.0000 H       1  UNL1        0.0626
     27 H           1.4643   -0.8329    0.0000 H       1  UNL1        0.0618
     28 H           8.1301   -1.6200    0.0000 H       1  UNL1        0.0620
     29 H           6.7272    0.8100    0.0000 H       1  UNL1        0.0620
     30 H           1.4643    0.8329    0.0000 H       1  UNL1        0.0618
     31 H           9.5331   -0.8100    0.0000 H       1  UNL1        0.0618
     32 H           8.1301    1.6200    0.0000 H       1  UNL1        0.0618
     33 H           9.5331    0.8100    0.0000 H       1  UNL1        0.0618
@<TRIPOS>BOND
     1     1    11    2
     2     2     4   ar
     3     2     5   ar
     4     2     9    1
     5     3     4   ar
     6     3    11   ar
     7     4     6    1
     8     5     7   ar
     9     5    10   ar
    10     6     8    1
    11     6    20    1
    12     6    21    1
    13     7    11   ar
    14     7    12   ar
    15     8    14   ar
    16     8    15   ar
    17     9    22    1
    18     9    23    1
    19     9    24    1
    20    10    13   ar
    21    10    25    1
    22    12    16   ar
    23    12    26    1
    24    13    16   ar
    25    13    27    1
    26    14    17   ar
    27    14    28    1
    28    15    18   ar
    29    15    29    1
    30    16    30    1
    31    17    19   ar
    32    17    31    1
    33    18    19   ar
    34    18    32    1
    35    19    33    1
