@<TRIPOS>MOLECULE
IMPHY005467
 42 42 0 0 0
SMALL
GASTEIGER

@<TRIPOS>ATOM
      1 O           8.5603   -0.4076    0.0000 O.3     1  UNL1       -0.3657
      2 O           6.2650    1.5184    0.0000 O.2     1  UNL1       -0.2923
      3 O           2.4608    0.2823    0.0000 O.3     1  UNL1       -0.3851
      4 C           7.7513    0.1801    0.0000 C.3     1  UNL1        0.0694
      5 C           9.3693    0.1801    0.0000 C.3     1  UNL1        0.0850
      6 C           8.0603    1.1312    0.0000 C.3     1  UNL1       -0.0230
      7 C           9.0603    1.1312    0.0000 C.3     1  UNL1       -0.0180
      8 C           6.8002   -0.1289    0.0000 C.3     1  UNL1        0.0449
      9 C          10.3204    0.4892    0.0000 C.3     1  UNL1       -0.0322
     10 C           9.9571   -0.6289    0.0000 C.2     1  UNL1       -0.0600
     11 C           6.5923   -1.1070    0.0000 C.3     1  UNL1       -0.0530
     12 C           6.0571    0.5403    0.0000 C.2     1  UNL1        0.1611
     13 C           5.1060    0.2312    0.0000 C.2     1  UNL1       -0.0201
     14 C           9.5504   -1.5424    0.0000 C.2     1  UNL1       -0.1000
     15 C           4.3629    0.9004    0.0000 C.2     1  UNL1       -0.0501
     16 C           3.4118    0.5914    0.0000 C.3     1  UNL1        0.0789
     17 C           3.1028    1.5424    0.0000 C.3     1  UNL1       -0.0327
     18 C           3.7208   -0.3597    0.0000 C.3     1  UNL1       -0.0327
     19 H           7.6183   -0.6594    0.0000 H       1  UNL1        0.0603
     20 H           8.1251    1.7478    0.0000 H       1  UNL1        0.0291
     21 H           7.4538    1.2601    0.0000 H       1  UNL1        0.0291
     22 H           9.6667    1.2601    0.0000 H       1  UNL1        0.0297
     23 H           8.9955    1.7478    0.0000 H       1  UNL1        0.0297
     24 H           6.2105   -0.3205    0.0000 H       1  UNL1        0.0403
     25 H          10.5119   -0.1005    0.0000 H       1  UNL1        0.0260
     26 H          10.9100    0.6808    0.0000 H       1  UNL1        0.0260
     27 H          10.1288    1.0788    0.0000 H       1  UNL1        0.0260
     28 H          10.5737   -0.5641    0.0000 H       1  UNL1        0.0594
     29 H           5.9858   -0.9781    0.0000 H       1  UNL1        0.0237
     30 H           6.4634   -1.7135    0.0000 H       1  UNL1        0.0237
     31 H           7.1988   -1.2359    0.0000 H       1  UNL1        0.0237
     32 H           4.9771   -0.3752    0.0000 H       1  UNL1        0.0650
     33 H           8.9337   -1.6072    0.0000 H       1  UNL1        0.0533
     34 H           9.9148   -2.0440    0.0000 H       1  UNL1        0.0533
     35 H           4.4918    1.5068    0.0000 H       1  UNL1        0.0601
     36 H           3.6924    1.7340    0.0000 H       1  UNL1        0.0260
     37 H           2.9112    2.1321    0.0000 H       1  UNL1        0.0260
     38 H           2.5131    1.3508    0.0000 H       1  UNL1        0.0260
     39 H           3.1312   -0.5513    0.0000 H       1  UNL1        0.0260
     40 H           3.9124   -0.9494    0.0000 H       1  UNL1        0.0260
     41 H           4.3105   -0.1681    0.0000 H       1  UNL1        0.0260
     42 H           2.0000    0.6972    0.0000 H       1  UNL1        0.2106
@<TRIPOS>BOND
     1     1     4    1
     2     1     5    1
     3     2    12    2
     4     3    16    1
     5     3    42    1
     6     4     6    1
     7     4     8    1
     8     4    19    1
     9     5     7    1
    10     5     9    1
    11     5    10    1
    12     6     7    1
    13     6    20    1
    14     6    21    1
    15     7    22    1
    16     7    23    1
    17     8    11    1
    18     8    12    1
    19     8    24    1
    20     9    25    1
    21     9    26    1
    22     9    27    1
    23    10    14    2
    24    10    28    1
    25    11    29    1
    26    11    30    1
    27    11    31    1
    28    12    13    1
    29    13    15    2
    30    13    32    1
    31    14    33    1
    32    14    34    1
    33    15    16    1
    34    15    35    1
    35    16    17    1
    36    16    18    1
    37    17    36    1
    38    17    37    1
    39    17    38    1
    40    18    39    1
    41    18    40    1
    42    18    41    1
