@<TRIPOS>MOLECULE
IMPHY013099
 48 52 0 0 0
SMALL
GASTEIGER

@<TRIPOS>ATOM
      1 O           2.7098   -1.0033    0.0000 O.3     1  UNL1       -0.3332
      2 O           2.5016   -2.0451    0.0000 O.3     1  UNL1       -0.3575
      3 O           2.5491   -3.0875    0.0000 O.2     1  UNL1       -0.2916
      4 O           6.6364    0.1501    0.0000 O.3     1  UNL1       -0.4911
      5 O           6.5899    2.0877    0.0000 O.3     1  UNL1       -0.4914
      6 N           4.4344   -0.2354    0.0000 N.3     1  UNL1       -0.2939
      7 C           4.2371   -1.1638    0.0000 C.3     1  UNL1        0.0956
      8 C           5.0591   -1.6384    0.0000 C.3     1  UNL1        0.0252
      9 C           3.4151   -1.6384    0.0000 C.3     1  UNL1        0.2481
     10 C           4.0398   -0.2354    0.0000 C.3     1  UNL1        0.0026
     11 C           5.7644   -1.0033    0.0000 C.3     1  UNL1       -0.0285
     12 C           3.0958   -0.1362    0.0000 C.3     1  UNL1        0.0896
     13 C           5.0591   -2.5875    0.0000 C.3     1  UNL1       -0.0344
     14 C           4.9542    0.1228    0.0000 C.ar    1  UNL1        0.0117
     15 C           5.3784   -0.1362    0.0000 C.3     1  UNL1        0.0002
     16 C           4.1106    0.5868    0.0000 C.ar    1  UNL1       -0.0112
     17 C           4.2371   -3.0621    0.0000 C.3     1  UNL1        0.0121
     18 C           3.4151   -2.5875    0.0000 C.2     1  UNL1        0.1938
     19 C           3.5864    0.2945    0.0000 C.3     1  UNL1       -0.0120
     20 C           5.7542    0.6209    0.0000 C.ar    1  UNL1        0.1656
     21 C           4.0909    1.5358    0.0000 C.ar    1  UNL1       -0.0521
     22 C           5.7345    1.5699    0.0000 C.ar    1  UNL1        0.1618
     23 C           4.9028    2.0273    0.0000 C.ar    1  UNL1       -0.0159
     24 C           7.4852    0.6787    0.0000 C.3     1  UNL1        0.0790
     25 C           6.5692    3.0875    0.0000 C.3     1  UNL1        0.0790
     26 H           4.6564   -0.1706    0.0000 H       1  UNL1        0.0314
     27 H           4.0398    0.3846    0.0000 H       1  UNL1        0.0314
     28 H           6.1289   -1.5049    0.0000 H       1  UNL1        0.0287
     29 H           6.3014   -0.6933    0.0000 H       1  UNL1        0.0287
     30 H           2.4377    0.4018    0.0000 H       1  UNL1        0.0648
     31 H           5.2711   -3.1701    0.0000 H       1  UNL1        0.0278
     32 H           5.6697   -2.4799    0.0000 H       1  UNL1        0.0278
     33 H           5.9680    0.0554    0.0000 H       1  UNL1        0.0427
     34 H           5.2495    0.4702    0.0000 H       1  UNL1        0.0427
     35 H           3.8386   -3.5370    0.0000 H       1  UNL1        0.0344
     36 H           4.6356   -3.5370    0.0000 H       1  UNL1        0.0344
     37 H           3.9150    0.8203    0.0000 H       1  UNL1        0.0391
     38 H           3.0606    0.6231    0.0000 H       1  UNL1        0.0391
     39 H           3.2578   -0.2313    0.0000 H       1  UNL1        0.0391
     40 H           2.0000   -1.6807    0.0000 H       1  UNL1        0.2132
     41 H           3.5476    1.8345    0.0000 H       1  UNL1        0.0622
     42 H           4.8900    2.6472    0.0000 H       1  UNL1        0.0655
     43 H           7.8130    0.1524    0.0000 H       1  UNL1        0.0660
     44 H           8.0116    1.0065    0.0000 H       1  UNL1        0.0660
     45 H           7.1575    1.2050    0.0000 H       1  UNL1        0.0660
     46 H           7.1890    3.1004    0.0000 H       1  UNL1        0.0660
     47 H           6.5563    3.7074    0.0000 H       1  UNL1        0.0660
     48 H           5.9493    3.0747    0.0000 H       1  UNL1        0.0660
@<TRIPOS>BOND
     1     1     9    1
     2     1    12    1
     3     9     2    1
     4     2    40    1
     5     3    18    2
     6     4    20    1
     7     4    24    1
     8     5    22    1
     9     5    25    1
    10     7     6    1
    11     6    15    1
    12     6    19    1
    13     7     8    1
    14     7     9    1
    15     7    10    1
    16     8    11    1
    17     8    13    1
    18     8    14    1
    19     9    18    1
    20    10    12    1
    21    10    26    1
    22    10    27    1
    23    11    15    1
    24    11    28    1
    25    11    29    1
    26    12    16    1
    27    12    30    1
    28    13    17    1
    29    13    31    1
    30    13    32    1
    31    14    16   ar
    32    14    20   ar
    33    15    33    1
    34    15    34    1
    35    16    21   ar
    36    17    18    1
    37    17    35    1
    38    17    36    1
    39    19    37    1
    40    19    38    1
    41    19    39    1
    42    20    22   ar
    43    21    23   ar
    44    21    41    1
    45    22    23   ar
    46    23    42    1
    47    24    43    1
    48    24    44    1
    49    24    45    1
    50    25    46    1
    51    25    47    1
    52    25    48    1
