@<TRIPOS>MOLECULE
IMPHY012700
 51 54 0 0 0
SMALL
GASTEIGER

@<TRIPOS>ATOM
      1 O           3.9061   -1.6126    0.0000 O.3     1  UNL1       -0.4814
      2 O           7.4260   -1.6126    0.0000 O.2     1  UNL1       -0.4213
      3 O           5.6660    1.4221    0.0000 O.3     1  UNL1       -0.4936
      4 O           7.4144    1.4567    0.0000 O.3     1  UNL1       -0.4934
      5 O           9.1962   -1.6021    0.0000 O.2     1  UNL1       -0.2444
      6 O          11.7884    1.9562    0.0000 O.3     1  UNL1       -0.4951
      7 C           3.0000   -1.0987    0.0000 C.3     1  UNL1        0.1235
      8 C           4.8000   -0.0779    0.0000 C.ar    1  UNL1        0.0591
      9 C           4.8000   -1.0779    0.0000 C.ar    1  UNL1        0.1359
     10 C           3.0000   -0.0571    0.0000 C.2     1  UNL1       -0.0408
     11 C           6.5320   -0.0779    0.0000 C.ar    1  UNL1        0.1021
     12 C           5.6660    0.4221    0.0000 C.ar    1  UNL1        0.1449
     13 C           3.9061    0.4568    0.0000 C.2     1  UNL1       -0.0478
     14 C           6.5320   -1.0779    0.0000 C.ar    1  UNL1        0.1496
     15 C           2.0000   -1.1026    0.0000 C.3     1  UNL1       -0.0215
     16 C           2.5033   -1.9667    0.0000 C.3     1  UNL1       -0.0215
     17 C           5.6660   -1.5779    0.0000 C.ar    1  UNL1        0.0241
     18 C           7.4260    0.4568    0.0000 C.ar    1  UNL1        0.1488
     19 C           8.3321   -0.0571    0.0000 C.ar    1  UNL1        0.1088
     20 C           8.3321   -1.0987    0.0000 C.ar    1  UNL1        0.3486
     21 C           9.1962    0.4462    0.0000 C.ar    1  UNL1       -0.0072
     22 C           9.1923    1.4462    0.0000 C.ar    1  UNL1       -0.0502
     23 C          10.0641   -0.0504    0.0000 C.ar    1  UNL1       -0.0502
     24 C           4.8000    1.9221    0.0000 C.3     1  UNL1        0.0788
     25 C          10.0564    1.9496    0.0000 C.ar    1  UNL1       -0.0194
     26 C          10.9282    0.4529    0.0000 C.ar    1  UNL1       -0.0194
     27 C           8.2746    1.9667    0.0000 C.3     1  UNL1        0.0789
     28 C          10.9243    1.4529    0.0000 C.ar    1  UNL1        0.1201
     29 C          12.6564    1.4596    0.0000 C.3     1  UNL1        0.0788
     30 H           2.4643    0.2550    0.0000 H       1  UNL1        0.0611
     31 H           3.9132    1.0767    0.0000 H       1  UNL1        0.0624
     32 H           1.9976   -0.4826    0.0000 H       1  UNL1        0.0271
     33 H           1.3800   -1.1050    0.0000 H       1  UNL1        0.0271
     34 H           2.0024   -1.7226    0.0000 H       1  UNL1        0.0271
     35 H           1.9652   -1.6587    0.0000 H       1  UNL1        0.0271
     36 H           2.1954   -2.5048    0.0000 H       1  UNL1        0.0271
     37 H           3.0415   -2.2746    0.0000 H       1  UNL1        0.0271
     38 H           5.6660   -2.1979    0.0000 H       1  UNL1        0.0691
     39 H           8.6542    1.7542    0.0000 H       1  UNL1        0.0625
     40 H          10.0665   -0.6704    0.0000 H       1  UNL1        0.0625
     41 H           5.1100    2.4590    0.0000 H       1  UNL1        0.0660
     42 H           4.2631    2.2321    0.0000 H       1  UNL1        0.0660
     43 H           4.4900    1.3852    0.0000 H       1  UNL1        0.0660
     44 H          10.0540    2.5696    0.0000 H       1  UNL1        0.0654
     45 H          11.4663    0.1450    0.0000 H       1  UNL1        0.0654
     46 H           8.5908    1.4333    0.0000 H       1  UNL1        0.0660
     47 H           8.8079    2.2829    0.0000 H       1  UNL1        0.0660
     48 H           7.9584    2.5000    0.0000 H       1  UNL1        0.0660
     49 H          12.3484    0.9215    0.0000 H       1  UNL1        0.0660
     50 H          13.1945    1.1517    0.0000 H       1  UNL1        0.0660
     51 H          12.9643    1.9977    0.0000 H       1  UNL1        0.0660
@<TRIPOS>BOND
     1     1     7    1
     2     1     9    1
     3     2    14   ar
     4     2    20   ar
     5     3    12    1
     6     3    24    1
     7     4    18    1
     8     4    27    1
     9     5    20    2
    10     6    28    1
    11     6    29    1
    12     7    10    1
    13     7    15    1
    14     7    16    1
    15     8     9   ar
    16     8    12   ar
    17     8    13    1
    18     9    17   ar
    19    10    13    2
    20    10    30    1
    21    11    12   ar
    22    11    14   ar
    23    11    18   ar
    24    13    31    1
    25    14    17   ar
    26    15    32    1
    27    15    33    1
    28    15    34    1
    29    16    35    1
    30    16    36    1
    31    16    37    1
    32    17    38    1
    33    18    19   ar
    34    19    20   ar
    35    19    21    1
    36    21    22   ar
    37    21    23   ar
    38    22    25   ar
    39    22    39    1
    40    23    26   ar
    41    23    40    1
    42    24    41    1
    43    24    42    1
    44    24    43    1
    45    25    28   ar
    46    25    44    1
    47    26    28   ar
    48    26    45    1
    49    27    46    1
    50    27    47    1
    51    27    48    1
    52    29    49    1
    53    29    50    1
    54    29    51    1
