@<TRIPOS>MOLECULE
IMPHY007241
 93 97 0 0 0
SMALL
GASTEIGER

@<TRIPOS>ATOM
      1 O           5.1842   -4.4822    0.0000 O.3     1  UNL1       -0.3516
      2 O           4.6501   -2.6861    0.0000 O.3     1  UNL1       -0.4759
      3 O           6.4985   -3.7252    0.0000 O.3     1  UNL1       -0.4785
      4 O           5.9408   -2.0854    0.0000 O.2     1  UNL1       -0.2476
      5 O           2.0520   -1.1861    0.0000 O.2     1  UNL1       -0.2866
      6 O           6.5160    0.3903    0.0000 O.3     1  UNL1       -0.4808
      7 O           3.7564    0.8554    0.0000 O.3     1  UNL1       -0.5052
      8 O           3.0129    0.5876    0.0000 O.3     1  UNL1       -0.4774
      9 O           2.1538    0.0758    0.0000 O.2     1  UNL1       -0.2455
     10 C           3.7841   -3.1861    0.0000 C.3     1  UNL1        0.1835
     11 C           3.8001   -4.2276    0.0000 C.3     1  UNL1        0.0355
     12 C           4.5067   -4.9845    0.0000 C.3     1  UNL1        0.0725
     13 C           4.7996   -3.3884    0.0000 C.3     1  UNL1        0.2132
     14 C           2.9021   -4.7553    0.0000 C.3     1  UNL1       -0.0400
     15 C           2.9180   -2.6861    0.0000 C.2     1  UNL1        0.0430
     16 C           2.0000   -4.2345    0.0000 C.3     1  UNL1       -0.0335
     17 C           4.7859   -2.3885    0.0000 C.3     1  UNL1        0.0100
     18 C           5.1083   -5.7833    0.0000 C.3     1  UNL1       -0.0356
     19 C           3.9329   -5.8034    0.0000 C.3     1  UNL1       -0.0356
     20 C           2.0080   -3.1929    0.0000 C.2     1  UNL1       -0.0732
     21 C           5.7463   -3.0664    0.0000 C.2     1  UNL1        0.3418
     22 C           2.9180   -1.6861    0.0000 C.2     1  UNL1        0.1999
     23 C           4.6501   -1.6861    0.0000 C.ar    1  UNL1        0.1433
     24 C           3.7841   -1.1861    0.0000 C.ar    1  UNL1        0.1061
     25 C           3.9131   -1.9004    0.0000 C.2     1  UNL1       -0.0709
     26 C           5.5601   -1.1792    0.0000 C.ar    1  UNL1        0.0412
     27 C           3.7680   -0.1446    0.0000 C.ar    1  UNL1        0.1418
     28 C           5.5681   -0.1376    0.0000 C.ar    1  UNL1        0.1393
     29 C           4.6660    0.3832    0.0000 C.ar    1  UNL1        0.0591
     30 C           3.8994   -0.9004    0.0000 C.2     1  UNL1        0.0295
     31 C           6.4203   -1.6892    0.0000 C.3     1  UNL1       -0.0023
     32 C           6.5244    1.4753    0.0000 C.3     1  UNL1        0.1266
     33 C           4.6493    1.4681    0.0000 C.2     1  UNL1       -0.0478
     34 C           4.7585   -0.3886    0.0000 C.3     1  UNL1       -0.0332
     35 C           5.5847    2.0178    0.0000 C.2     1  UNL1       -0.0405
     36 C           7.2920   -1.1992    0.0000 C.2     1  UNL1       -0.0807
     37 C           3.0266   -0.4123    0.0000 C.2     1  UNL1        0.3322
     38 C           7.0277    2.3394    0.0000 C.3     1  UNL1       -0.0060
     39 C           7.5244    1.4714    0.0000 C.3     1  UNL1       -0.0212
     40 C           8.1522   -1.7092    0.0000 C.2     1  UNL1       -0.0793
     41 C           6.5310    3.2073    0.0000 C.3     1  UNL1       -0.0306
     42 C           9.0239   -1.2193    0.0000 C.3     1  UNL1       -0.0440
     43 C           8.1406   -2.7092    0.0000 C.3     1  UNL1       -0.0440
     44 C           7.0344    4.0714    0.0000 C.2     1  UNL1       -0.0851
     45 C           6.5377    4.9394    0.0000 C.2     1  UNL1       -0.0796
     46 C           7.0410    5.8034    0.0000 C.3     1  UNL1       -0.0440
     47 C           5.5377    4.9432    0.0000 C.3     1  UNL1       -0.0440
     48 H           3.6780   -5.0688    0.0000 H       1  UNL1        0.0372
     49 H           2.5048   -5.2313    0.0000 H       1  UNL1        0.0273
     50 H           3.3030   -5.2282    0.0000 H       1  UNL1        0.0273
     51 H           1.3900   -4.1237    0.0000 H       1  UNL1        0.0308
     52 H           1.7864   -4.8166    0.0000 H       1  UNL1        0.0308
     53 H           5.3979   -2.4877    0.0000 H       1  UNL1        0.0342
     54 H           4.9899   -1.8030    0.0000 H       1  UNL1        0.0342
     55 H           3.4251   -5.4477    0.0000 H       1  UNL1        0.0257
     56 H           3.5771   -6.3112    0.0000 H       1  UNL1        0.0257
     57 H           4.4407   -6.1592    0.0000 H       1  UNL1        0.0257
     58 H           4.6130   -6.1563    0.0000 H       1  UNL1        0.0257
     59 H           5.4813   -6.2786    0.0000 H       1  UNL1        0.0257
     60 H           5.6036   -5.4103    0.0000 H       1  UNL1        0.0257
     61 H           1.4747   -2.8767    0.0000 H       1  UNL1        0.0577
     62 H           3.3804   -2.2177    0.0000 H       1  UNL1        0.0578
     63 H           7.0855   -3.5256    0.0000 H       1  UNL1        0.2951
     64 H           6.0163   -2.1595    0.0000 H       1  UNL1        0.0358
     65 H           6.8133   -2.1687    0.0000 H       1  UNL1        0.0358
     66 H           4.1088    1.7718    0.0000 H       1  UNL1        0.0624
     67 H           5.0758   -0.9213    0.0000 H       1  UNL1        0.0280
     68 H           5.2912   -0.0713    0.0000 H       1  UNL1        0.0280
     69 H           4.4412    0.1440    0.0000 H       1  UNL1        0.0280
     70 H           3.2160    1.1591    0.0000 H       1  UNL1        0.2922
     71 H           5.5823    2.6378    0.0000 H       1  UNL1        0.0611
     72 H           7.2992   -0.5793    0.0000 H       1  UNL1        0.0575
     73 H           7.5011    1.9390    0.0000 H       1  UNL1        0.0310
     74 H           7.5042    2.7361    0.0000 H       1  UNL1        0.0310
     75 H           7.5220    0.8514    0.0000 H       1  UNL1        0.0271
     76 H           8.1444    1.4690    0.0000 H       1  UNL1        0.0271
     77 H           7.5267    2.0914    0.0000 H       1  UNL1        0.0271
     78 H           6.0576    3.6077    0.0000 H       1  UNL1        0.0309
     79 H           6.0546    2.8106    0.0000 H       1  UNL1        0.0309
     80 H           2.4718    0.8902    0.0000 H       1  UNL1        0.2954
     81 H           9.3277   -1.7598    0.0000 H       1  UNL1        0.0274
     82 H           9.5644   -0.9155    0.0000 H       1  UNL1        0.0274
     83 H           8.7202   -0.6788    0.0000 H       1  UNL1        0.0274
     84 H           7.5207   -2.7020    0.0000 H       1  UNL1        0.0274
     85 H           8.1335   -3.3291    0.0000 H       1  UNL1        0.0274
     86 H           8.7606   -2.7163    0.0000 H       1  UNL1        0.0274
     87 H           7.6544    4.0690    0.0000 H       1  UNL1        0.0571
     88 H           5.5401    5.5632    0.0000 H       1  UNL1        0.0274
     89 H           4.9177    4.9456    0.0000 H       1  UNL1        0.0274
     90 H           5.5353    4.3232    0.0000 H       1  UNL1        0.0274
     91 H           7.5768    5.4914    0.0000 H       1  UNL1        0.0274
     92 H           7.3531    6.3392    0.0000 H       1  UNL1        0.0274
     93 H           6.5053    6.1155    0.0000 H       1  UNL1        0.0274
@<TRIPOS>BOND
     1     1    12    1
     2     1    13    1
     3     2    10    1
     4     2    23    1
     5     3    21    1
     6     3    63    1
     7     4    21    2
     8     5    22    2
     9     6    28    1
    10     6    32    1
    11     7    27    1
    12     7    70    1
    13     8    37    1
    14     8    80    1
    15     9    37    2
    16    10    11    1
    17    10    13    1
    18    10    15    1
    19    11    12    1
    20    11    14    1
    21    11    48    1
    22    12    18    1
    23    12    19    1
    24    13    17    1
    25    13    21    1
    26    14    16    1
    27    14    49    1
    28    14    50    1
    29    15    20    2
    30    15    22    1
    31    16    20    1
    32    16    51    1
    33    16    52    1
    34    17    25    1
    35    17    53    1
    36    17    54    1
    37    18    58    1
    38    18    59    1
    39    18    60    1
    40    19    55    1
    41    19    56    1
    42    19    57    1
    43    20    61    1
    44    22    24    1
    45    23    24   ar
    46    23    26   ar
    47    24    27   ar
    48    25    30    2
    49    25    62    1
    50    26    28   ar
    51    26    31    1
    52    27    29   ar
    53    28    29   ar
    54    29    33    1
    55    30    34    1
    56    30    37    1
    57    31    36    1
    58    31    64    1
    59    31    65    1
    60    32    35    1
    61    32    38    1
    62    32    39    1
    63    33    35    2
    64    33    66    1
    65    34    67    1
    66    34    68    1
    67    34    69    1
    68    35    71    1
    69    36    40    2
    70    36    72    1
    71    38    41    1
    72    38    73    1
    73    38    74    1
    74    39    75    1
    75    39    76    1
    76    39    77    1
    77    40    42    1
    78    40    43    1
    79    41    44    1
    80    41    78    1
    81    41    79    1
    82    42    81    1
    83    42    82    1
    84    42    83    1
    85    43    84    1
    86    43    85    1
    87    43    86    1
    88    44    45    2
    89    44    87    1
    90    45    46    1
    91    45    47    1
    92    46    91    1
    93    46    92    1
    94    46    93    1
    95    47    88    1
    96    47    89    1
    97    47    90    1
