@<TRIPOS>MOLECULE
IMPHY008789
 27 27 0 0 0
SMALL
GASTEIGER

@<TRIPOS>ATOM
      1 O           3.4030   -1.1550    0.0000 O.3     1  UNL1       -0.4612
      2 O           2.5369    2.3450    0.0000 O.3     1  UNL1       -0.5032
      3 O           6.0010    2.3450    0.0000 O.3     1  UNL1       -0.5032
      4 O           4.2690    3.3450    0.0000 O.3     1  UNL1       -0.5009
      5 O           5.1350   -1.1550    0.0000 O.2     1  UNL1       -0.2450
      6 C           2.5369   -2.6550    0.0000 C.3     1  UNL1       -0.0214
      7 C           3.4030   -2.1550    0.0000 C.3     1  UNL1        0.0925
      8 C           4.2690    0.3450    0.0000 C.ar    1  UNL1        0.0661
      9 C           5.1350    0.8450    0.0000 C.ar    1  UNL1       -0.0023
     10 C           3.4030    0.8450    0.0000 C.ar    1  UNL1       -0.0023
     11 C           4.2690   -0.6550    0.0000 C.2     1  UNL1        0.3394
     12 C           3.4030    1.8450    0.0000 C.ar    1  UNL1        0.1628
     13 C           5.1350    1.8450    0.0000 C.ar    1  UNL1        0.1628
     14 C           2.5369   -3.6550    0.0000 C.3     1  UNL1       -0.0622
     15 C           4.2690    2.3450    0.0000 C.ar    1  UNL1        0.2006
     16 H           2.3249   -2.0724    0.0000 H       1  UNL1        0.0295
     17 H           1.9264   -2.7627    0.0000 H       1  UNL1        0.0295
     18 H           3.6150   -2.7376    0.0000 H       1  UNL1        0.0697
     19 H           4.0135   -2.0473    0.0000 H       1  UNL1        0.0697
     20 H           5.6720    0.5350    0.0000 H       1  UNL1        0.0663
     21 H           2.8660    0.5350    0.0000 H       1  UNL1        0.0663
     22 H           1.9169   -3.6550    0.0000 H       1  UNL1        0.0231
     23 H           2.5369   -4.2750    0.0000 H       1  UNL1        0.0231
     24 H           3.1569   -3.6550    0.0000 H       1  UNL1        0.0231
     25 H           2.0000    2.0350    0.0000 H       1  UNL1        0.2923
     26 H           6.5380    2.0350    0.0000 H       1  UNL1        0.2923
     27 H           4.8059    3.6550    0.0000 H       1  UNL1        0.2924
@<TRIPOS>BOND
     1     1     7    1
     2     1    11    1
     3     2    12    1
     4     2    25    1
     5     3    13    1
     6     3    26    1
     7     4    15    1
     8     4    27    1
     9     5    11    2
    10     6     7    1
    11     6    14    1
    12     6    16    1
    13     6    17    1
    14     7    18    1
    15     7    19    1
    16     8     9   ar
    17     8    10   ar
    18     8    11    1
    19     9    13   ar
    20     9    20    1
    21    10    12   ar
    22    10    21    1
    23    12    15   ar
    24    13    15   ar
    25    14    22    1
    26    14    23    1
    27    14    24    1
