@<TRIPOS>MOLECULE
IMPHY004396
 51 54 0 0 0
SMALL
GASTEIGER

@<TRIPOS>ATOM
      1 O           7.3062    1.5678    0.0000 O.3     1  UNL1       -0.4807
      2 O           3.7702    1.5956    0.0000 O.2     1  UNL1       -0.4213
      3 O           5.5301   -1.4390    0.0000 O.3     1  UNL1       -0.5052
      4 O           7.2622   -1.4390    0.0000 O.2     1  UNL1       -0.2915
      5 O           2.0000    1.5851    0.0000 O.2     1  UNL1       -0.2452
      6 C           7.3142    2.6094    0.0000 C.3     1  UNL1        0.1235
      7 C           6.3961    1.0610    0.0000 C.ar    1  UNL1        0.1464
      8 C           5.5301    1.5610    0.0000 C.ar    1  UNL1        0.0604
      9 C           6.3961    0.0610    0.0000 C.ar    1  UNL1        0.1020
     10 C           4.6641    0.0610    0.0000 C.ar    1  UNL1        0.0682
     11 C           4.6641    1.0610    0.0000 C.ar    1  UNL1        0.1538
     12 C           6.4121    3.1302    0.0000 C.2     1  UNL1       -0.0408
     13 C           5.5301   -0.4390    0.0000 C.ar    1  UNL1        0.1421
     14 C           5.5141    2.6025    0.0000 C.2     1  UNL1       -0.0477
     15 C           7.8175    3.4735    0.0000 C.3     1  UNL1       -0.0215
     16 C           8.3142    2.6056    0.0000 C.3     1  UNL1       -0.0215
     17 C           7.2622   -0.4390    0.0000 C.2     1  UNL1        0.1728
     18 C           8.1282    0.0610    0.0000 C.3     1  UNL1        0.0167
     19 C           3.7702   -0.4737    0.0000 C.ar    1  UNL1        0.0031
     20 C           2.8641    0.0401    0.0000 C.ar    1  UNL1        0.0314
     21 C           3.7817   -1.4736    0.0000 C.ar    1  UNL1       -0.0169
     22 C           8.9942   -0.4390    0.0000 C.3     1  UNL1       -0.0556
     23 C           8.1282    1.0610    0.0000 C.3     1  UNL1       -0.0556
     24 C           2.8641    1.0818    0.0000 C.ar    1  UNL1        0.3378
     25 C           2.9215   -1.9836    0.0000 C.ar    1  UNL1       -0.0540
     26 C           4.6535   -1.9636    0.0000 C.ar    1  UNL1       -0.0540
     27 C           2.9331   -2.9836    0.0000 C.ar    1  UNL1       -0.0612
     28 C           4.6650   -2.9635    0.0000 C.ar    1  UNL1       -0.0612
     29 C           3.8048   -3.4735    0.0000 C.ar    1  UNL1       -0.0617
     30 H           6.4097    3.7502    0.0000 H       1  UNL1        0.0611
     31 H           4.9736    2.9062    0.0000 H       1  UNL1        0.0624
     32 H           8.3118    1.9856    0.0000 H       1  UNL1        0.0271
     33 H           8.9342    2.6032    0.0000 H       1  UNL1        0.0271
     34 H           8.3166    3.2256    0.0000 H       1  UNL1        0.0271
     35 H           8.3532    3.1614    0.0000 H       1  UNL1        0.0271
     36 H           8.1296    4.0092    0.0000 H       1  UNL1        0.0271
     37 H           7.2818    3.7856    0.0000 H       1  UNL1        0.0271
     38 H           8.6651    0.3710    0.0000 H       1  UNL1        0.0375
     39 H           2.3284   -0.2719    0.0000 H       1  UNL1        0.0695
     40 H           8.6842   -0.9760    0.0000 H       1  UNL1        0.0236
     41 H           8.7482    1.0610    0.0000 H       1  UNL1        0.0236
     42 H           9.5312   -0.7490    0.0000 H       1  UNL1        0.0236
     43 H           9.3042    0.0979    0.0000 H       1  UNL1        0.0236
     44 H           8.1282    1.6810    0.0000 H       1  UNL1        0.0236
     45 H           7.5082    1.0610    0.0000 H       1  UNL1        0.0236
     46 H           6.0671   -1.7490    0.0000 H       1  UNL1        0.2922
     47 H           2.3810   -1.6798    0.0000 H       1  UNL1        0.0624
     48 H           5.1868   -1.6474    0.0000 H       1  UNL1        0.0624
     49 H           2.3998   -3.2997    0.0000 H       1  UNL1        0.0618
     50 H           5.2055   -3.2673    0.0000 H       1  UNL1        0.0618
     51 H           3.8120   -4.0935    0.0000 H       1  UNL1        0.0618
@<TRIPOS>BOND
     1     1     6    1
     2     1     7    1
     3     2    11   ar
     4     2    24   ar
     5     3    13    1
     6     3    46    1
     7     4    17    2
     8     5    24    2
     9     6    12    1
    10     6    15    1
    11     6    16    1
    12     7     8   ar
    13     7     9   ar
    14     8    11   ar
    15     8    14    1
    16     9    13   ar
    17     9    17    1
    18    10    11   ar
    19    10    13   ar
    20    10    19   ar
    21    12    14    2
    22    12    30    1
    23    14    31    1
    24    15    35    1
    25    15    36    1
    26    15    37    1
    27    16    32    1
    28    16    33    1
    29    16    34    1
    30    17    18    1
    31    18    22    1
    32    18    23    1
    33    18    38    1
    34    19    20   ar
    35    19    21    1
    36    20    24   ar
    37    20    39    1
    38    21    25   ar
    39    21    26   ar
    40    22    40    1
    41    22    42    1
    42    22    43    1
    43    23    41    1
    44    23    44    1
    45    23    45    1
    46    25    27   ar
    47    25    47    1
    48    26    28   ar
    49    26    48    1
    50    27    29   ar
    51    27    49    1
    52    28    29   ar
    53    28    50    1
    54    29    51    1
