@<TRIPOS>MOLECULE
IMPHY017395
 61 60 0 0 0
SMALL
GASTEIGER

@<TRIPOS>ATOM
      1 O           5.1350   -2.2500    0.0000 O.3     1  UNL1       -0.4623
      2 O           6.0010   -3.7500    0.0000 O.2     1  UNL1       -0.2509
      3 O           2.5369   -2.7500    0.0000 O.3     1  UNL1       -0.3917
      4 C          15.5273    0.7500    0.0000 C.3     1  UNL1       -0.0530
      5 C          14.6613    0.2500    0.0000 C.3     1  UNL1       -0.0528
      6 C          10.3312   -2.2500    0.0000 C.3     1  UNL1       -0.0528
      7 C           9.4651   -2.7500    0.0000 C.3     1  UNL1       -0.0530
      8 C          15.5273    1.7500    0.0000 C.3     1  UNL1       -0.0531
      9 C          14.6613   -0.7500    0.0000 C.3     1  UNL1       -0.0496
     10 C          11.1972   -2.7500    0.0000 C.3     1  UNL1       -0.0496
     11 C           8.5991   -2.2500    0.0000 C.3     1  UNL1       -0.0526
     12 C          16.3933    2.2500    0.0000 C.3     1  UNL1       -0.0533
     13 C          13.7953   -1.2500    0.0000 C.3     1  UNL1       -0.0348
     14 C          12.0632   -2.2500    0.0000 C.3     1  UNL1       -0.0348
     15 C           7.7331   -2.7500    0.0000 C.3     1  UNL1       -0.0430
     16 C          16.3933    3.2500    0.0000 C.3     1  UNL1       -0.0559
     17 C          13.7953   -2.2500    0.0000 C.2     1  UNL1       -0.0879
     18 C          12.9292   -2.7500    0.0000 C.2     1  UNL1       -0.0879
     19 C           6.8671   -2.2500    0.0000 C.3     1  UNL1        0.0449
     20 C          17.2594    3.7500    0.0000 C.3     1  UNL1       -0.0653
     21 C           6.0010   -2.7500    0.0000 C.2     1  UNL1        0.3071
     22 C           4.2690   -2.7500    0.0000 C.3     1  UNL1        0.1154
     23 C           3.4030   -2.2500    0.0000 C.3     1  UNL1        0.0784
     24 H          15.7394    0.1674    0.0000 H       1  UNL1        0.0265
     25 H          16.1379    0.8577    0.0000 H       1  UNL1        0.0265
     26 H          14.4492    0.8326    0.0000 H       1  UNL1        0.0265
     27 H          14.0507    0.1423    0.0000 H       1  UNL1        0.0265
     28 H          10.7297   -1.7750    0.0000 H       1  UNL1        0.0265
     29 H           9.9326   -1.7750    0.0000 H       1  UNL1        0.0265
     30 H           9.0666   -3.2250    0.0000 H       1  UNL1        0.0265
     31 H           9.8637   -3.2250    0.0000 H       1  UNL1        0.0265
     32 H          15.3153    2.3326    0.0000 H       1  UNL1        0.0265
     33 H          14.9167    1.6423    0.0000 H       1  UNL1        0.0265
     34 H          14.8733   -1.3326    0.0000 H       1  UNL1        0.0268
     35 H          15.2719   -0.6423    0.0000 H       1  UNL1        0.0268
     36 H          10.7987   -3.2250    0.0000 H       1  UNL1        0.0268
     37 H          11.5957   -3.2250    0.0000 H       1  UNL1        0.0268
     38 H           8.9976   -1.7750    0.0000 H       1  UNL1        0.0265
     39 H           8.2006   -1.7750    0.0000 H       1  UNL1        0.0265
     40 H          16.6054    1.6674    0.0000 H       1  UNL1        0.0265
     41 H          17.0039    2.3577    0.0000 H       1  UNL1        0.0265
     42 H          13.5832   -0.6674    0.0000 H       1  UNL1        0.0307
     43 H          13.1847   -1.3577    0.0000 H       1  UNL1        0.0307
     44 H          12.4617   -1.7750    0.0000 H       1  UNL1        0.0307
     45 H          11.6647   -1.7750    0.0000 H       1  UNL1        0.0307
     46 H           7.3346   -3.2250    0.0000 H       1  UNL1        0.0270
     47 H           8.1316   -3.2250    0.0000 H       1  UNL1        0.0270
     48 H          16.1813    3.8326    0.0000 H       1  UNL1        0.0263
     49 H          15.7828    3.1423    0.0000 H       1  UNL1        0.0263
     50 H          14.3322   -2.5600    0.0000 H       1  UNL1        0.0569
     51 H          12.9292   -3.3700    0.0000 H       1  UNL1        0.0569
     52 H           7.2656   -1.7750    0.0000 H       1  UNL1        0.0377
     53 H           6.4685   -1.7750    0.0000 H       1  UNL1        0.0377
     54 H          17.5694    3.2131    0.0000 H       1  UNL1        0.0230
     55 H          17.7963    4.0600    0.0000 H       1  UNL1        0.0230
     56 H          16.9494    4.2869    0.0000 H       1  UNL1        0.0230
     57 H           3.8705   -3.2250    0.0000 H       1  UNL1        0.0721
     58 H           4.6675   -3.2250    0.0000 H       1  UNL1        0.0721
     59 H           3.8015   -1.7750    0.0000 H       1  UNL1        0.0591
     60 H           3.0044   -1.7750    0.0000 H       1  UNL1        0.0591
     61 H           2.0000   -2.4400    0.0000 H       1  UNL1        0.2095
@<TRIPOS>BOND
     1     1    21    1
     2     1    22    1
     3     2    21    2
     4     3    23    1
     5     3    61    1
     6     4     5    1
     7     4     8    1
     8     4    24    1
     9     4    25    1
    10     5     9    1
    11     5    26    1
    12     5    27    1
    13     6     7    1
    14     6    10    1
    15     6    28    1
    16     6    29    1
    17     7    11    1
    18     7    30    1
    19     7    31    1
    20     8    12    1
    21     8    32    1
    22     8    33    1
    23     9    13    1
    24     9    34    1
    25     9    35    1
    26    10    14    1
    27    10    36    1
    28    10    37    1
    29    11    15    1
    30    11    38    1
    31    11    39    1
    32    12    16    1
    33    12    40    1
    34    12    41    1
    35    13    17    1
    36    13    42    1
    37    13    43    1
    38    14    18    1
    39    14    44    1
    40    14    45    1
    41    15    19    1
    42    15    46    1
    43    15    47    1
    44    16    20    1
    45    16    48    1
    46    16    49    1
    47    17    18    2
    48    17    50    1
    49    18    51    1
    50    19    21    1
    51    19    52    1
    52    19    53    1
    53    20    54    1
    54    20    55    1
    55    20    56    1
    56    22    23    1
    57    22    57    1
    58    22    58    1
    59    23    59    1
    60    23    60    1
