@<TRIPOS>MOLECULE
IMPHY004212
 46 51 0 0 0
SMALL
GASTEIGER

@<TRIPOS>ATOM
      1 O           7.3129   -0.6074    0.0000 O.3     1  UNL1       -0.3422
      2 O           4.2611   -0.9281    0.0000 O.3     1  UNL1       -0.3685
      3 O           5.9393   -2.2600    0.0000 O.3     1  UNL1       -0.3801
      4 O           6.6050   -2.4516    0.0000 O.3     1  UNL1       -0.3588
      5 O          10.3572   -1.6687    0.0000 O.3     1  UNL1       -0.4526
      6 O           2.0009    2.1697    0.0000 O.3     1  UNL1       -0.4526
      7 O          10.3572   -3.2781    0.0000 O.3     1  UNL1       -0.4526
      8 O           2.9446    3.4734    0.0000 O.3     1  UNL1       -0.4526
      9 C           5.8348   -1.2655    0.0000 C.3     1  UNL1        0.1544
     10 C           5.7302   -0.2710    0.0000 C.3     1  UNL1        0.0493
     11 C           6.8129   -1.4734    0.0000 C.3     1  UNL1        0.2266
     12 C           4.7574   -0.0668    0.0000 C.3     1  UNL1        0.0916
     13 C           4.9256   -1.6675    0.0000 C.3     1  UNL1        0.0831
     14 C           6.6438    0.1358    0.0000 C.3     1  UNL1        0.0597
     15 C           7.6790   -1.9734    0.0000 C.ar    1  UNL1        0.0176
     16 C           4.3490    0.8460    0.0000 C.ar    1  UNL1       -0.0148
     17 C           8.5450   -1.4734    0.0000 C.ar    1  UNL1       -0.0078
     18 C           7.6790   -2.9734    0.0000 C.ar    1  UNL1       -0.0497
     19 C           3.3543    0.9488    0.0000 C.ar    1  UNL1       -0.0105
     20 C           4.9354    1.6561    0.0000 C.ar    1  UNL1       -0.0524
     21 C           9.4110   -1.9734    0.0000 C.ar    1  UNL1        0.1667
     22 C           2.9460    1.8617    0.0000 C.ar    1  UNL1        0.1666
     23 C           8.5450   -3.4734    0.0000 C.ar    1  UNL1       -0.0157
     24 C           4.5271    2.5689    0.0000 C.ar    1  UNL1       -0.0158
     25 C           9.4110   -2.9734    0.0000 C.ar    1  UNL1        0.1663
     26 C           3.5324    2.6717    0.0000 C.ar    1  UNL1        0.1662
     27 C          10.9408   -2.4734    0.0000 C.3     1  UNL1        0.2332
     28 C           2.0000    3.1638    0.0000 C.3     1  UNL1        0.2332
     29 H           5.6403    0.5743    0.0000 H       1  UNL1        0.0382
     30 H           4.1382   -0.0352    0.0000 H       1  UNL1        0.0651
     31 H           4.4235   -2.0312    0.0000 H       1  UNL1        0.0591
     32 H           5.2345   -2.2050    0.0000 H       1  UNL1        0.0591
     33 H           7.1454    0.5002    0.0000 H       1  UNL1        0.0566
     34 H           6.3338    0.6727    0.0000 H       1  UNL1        0.0566
     35 H           5.4377   -2.6244    0.0000 H       1  UNL1        0.2105
     36 H           7.0658   -2.8664    0.0000 H       1  UNL1        0.2132
     37 H           8.5450   -0.8534    0.0000 H       1  UNL1        0.0660
     38 H           7.1420   -3.2834    0.0000 H       1  UNL1        0.0623
     39 H           2.9908    0.4466    0.0000 H       1  UNL1        0.0659
     40 H           5.5521    1.5923    0.0000 H       1  UNL1        0.0622
     41 H           8.5450   -4.0934    0.0000 H       1  UNL1        0.0655
     42 H           4.8907    3.0711    0.0000 H       1  UNL1        0.0655
     43 H          11.4017   -2.8881    0.0000 H       1  UNL1        0.1166
     44 H          11.4017   -2.0587    0.0000 H       1  UNL1        0.1166
     45 H           1.8699    3.7700    0.0000 H       1  UNL1        0.1166
     46 H           1.3835    3.0981    0.0000 H       1  UNL1        0.1166
@<TRIPOS>BOND
     1     1    11    1
     2     1    14    1
     3     2    12    1
     4     2    13    1
     5     9     3    1
     6     3    35    1
     7    11     4    1
     8     4    36    1
     9     5    21    1
    10     5    27    1
    11     6    22    1
    12     6    28    1
    13     7    25    1
    14     7    27    1
    15     8    26    1
    16     8    28    1
    17     9    10    1
    18     9    11    1
    19     9    13    1
    20    10    12    1
    21    10    14    1
    22    10    29    1
    23    11    15    1
    24    12    16    1
    25    12    30    1
    26    13    31    1
    27    13    32    1
    28    14    33    1
    29    14    34    1
    30    15    17   ar
    31    15    18   ar
    32    16    19   ar
    33    16    20   ar
    34    17    21   ar
    35    17    37    1
    36    18    23   ar
    37    18    38    1
    38    19    22   ar
    39    19    39    1
    40    20    24   ar
    41    20    40    1
    42    21    25   ar
    43    22    26   ar
    44    23    25   ar
    45    23    41    1
    46    24    26   ar
    47    24    42    1
    48    27    43    1
    49    27    44    1
    50    28    45    1
    51    28    46    1
