@<TRIPOS>MOLECULE
IMPHY006288
 39 41 0 0 0
SMALL
GASTEIGER

@<TRIPOS>ATOM
      1 C           4.2128    0.0385    0.0000 C.3     1  UNL1        0.0007
      2 C           3.4038    0.6263    0.0000 C.3     1  UNL1       -0.0260
      3 C           5.0218    0.6263    0.0000 C.3     1  UNL1       -0.0224
      4 C           2.8078   -0.1870    0.0000 C.3     1  UNL1       -0.0304
      5 C           3.6235   -0.7796    0.0000 C.3     1  UNL1       -0.0374
      6 C           3.7128    1.5774    0.0000 C.3     1  UNL1       -0.0484
      7 C           4.7128    1.5774    0.0000 C.3     1  UNL1       -0.0465
      8 C           4.3057   -0.9990    0.0000 C.2     1  UNL1       -0.0696
      9 C           5.9798    0.2174    0.0000 C.3     1  UNL1       -0.0465
     10 C           5.8309    1.2141    0.0000 C.3     1  UNL1       -0.0588
     11 C           2.2184   -0.9948    0.0000 C.3     1  UNL1       -0.0595
     12 C           2.0000    0.4025    0.0000 C.3     1  UNL1       -0.0595
     13 C           5.2540   -1.4300    0.0000 C.3     1  UNL1       -0.0314
     14 C           6.0967   -0.8177    0.0000 C.3     1  UNL1       -0.0488
     15 C           3.4900   -1.5774    0.0000 C.2     1  UNL1       -0.0989
     16 H           2.8520    0.9089    0.0000 H       1  UNL1        0.0315
     17 H           3.2598   -1.2817    0.0000 H       1  UNL1        0.0279
     18 H           4.1261   -1.1427    0.0000 H       1  UNL1        0.0279
     19 H           3.7776    2.1940    0.0000 H       1  UNL1        0.0269
     20 H           3.1064    1.7063    0.0000 H       1  UNL1        0.0269
     21 H           5.3193    1.7063    0.0000 H       1  UNL1        0.0271
     22 H           4.6480    2.1940    0.0000 H       1  UNL1        0.0271
     23 H           6.5987    0.1805    0.0000 H       1  UNL1        0.0271
     24 H           6.1221    0.8208    0.0000 H       1  UNL1        0.0271
     25 H           6.1953    0.7125    0.0000 H       1  UNL1        0.0235
     26 H           6.3324    1.5785    0.0000 H       1  UNL1        0.0235
     27 H           5.4664    1.7157    0.0000 H       1  UNL1        0.0235
     28 H           1.7175   -0.6293    0.0000 H       1  UNL1        0.0235
     29 H           1.8529   -1.4956    0.0000 H       1  UNL1        0.0235
     30 H           2.7192   -1.3602    0.0000 H       1  UNL1        0.0235
     31 H           2.3655    0.9033    0.0000 H       1  UNL1        0.0235
     32 H           1.4992    0.7679    0.0000 H       1  UNL1        0.0235
     33 H           1.6345   -0.0984    0.0000 H       1  UNL1        0.0235
     34 H           4.9047   -1.9422    0.0000 H       1  UNL1        0.0310
     35 H           5.6989   -1.8618    0.0000 H       1  UNL1        0.0310
     36 H           6.3699   -1.3742    0.0000 H       1  UNL1        0.0268
     37 H           6.6918   -0.6437    0.0000 H       1  UNL1        0.0268
     38 H           2.9265   -1.3187    0.0000 H       1  UNL1        0.0535
     39 H           3.5476   -2.1947    0.0000 H       1  UNL1        0.0535
@<TRIPOS>BOND
     1     1     2    1
     2     1     3    1
     3     1     5    1
     4     1     8    1
     5     2     4    1
     6     2     6    1
     7     2    16    1
     8     3     7    1
     9     3     9    1
    10     3    10    1
    11     4     5    1
    12     4    11    1
    13     4    12    1
    14     5    17    1
    15     5    18    1
    16     6     7    1
    17     6    19    1
    18     6    20    1
    19     7    21    1
    20     7    22    1
    21     8    13    1
    22     8    15    2
    23     9    14    1
    24     9    23    1
    25     9    24    1
    26    10    25    1
    27    10    26    1
    28    10    27    1
    29    11    28    1
    30    11    29    1
    31    11    30    1
    32    12    31    1
    33    12    32    1
    34    12    33    1
    35    13    14    1
    36    13    34    1
    37    13    35    1
    38    14    36    1
    39    14    37    1
    40    15    38    1
    41    15    39    1
