@<TRIPOS>MOLECULE
IMPHY013592
 93 98 0 0 0
SMALL
GASTEIGER

@<TRIPOS>ATOM
      1 O           4.7742    4.7810    0.0000 O.3     1  UNL1       -0.3477
      2 O           5.1742    6.3810    0.0000 O.3     1  UNL1       -0.3640
      3 O           3.9118   -3.6338    0.0000 O.3     1  UNL1       -0.4569
      4 O           2.5345   -1.5317    0.0000 O.3     1  UNL1       -0.4801
      5 O           2.7675   -2.7960    0.0000 O.2     1  UNL1       -0.2502
      6 O           5.5372   -4.2325    0.0000 O.2     1  UNL1       -0.2453
      7 C           5.1742    3.3810    0.0000 C.3     1  UNL1        0.0015
      8 C           4.2922    1.8118    0.0000 C.3     1  UNL1       -0.0193
      9 C           5.1902    2.3395    0.0000 C.3     1  UNL1       -0.0234
     10 C           4.3082    3.8810    0.0000 C.3     1  UNL1       -0.0230
     11 C           4.2838    0.7268    0.0000 C.3     1  UNL1       -0.0051
     12 C           4.3082    4.8810    0.0000 C.3     1  UNL1        0.0223
     13 C           3.3901    2.3326    0.0000 C.3     1  UNL1       -0.0463
     14 C           3.3982    3.3742    0.0000 C.3     1  UNL1       -0.0484
     15 C           6.0402    3.8810    0.0000 C.3     1  UNL1       -0.0398
     16 C           5.1742    5.3810    0.0000 C.3     1  UNL1        0.1726
     17 C           4.7742    3.9810    0.0000 C.3     1  UNL1        0.0571
     18 C           5.2235    0.1843    0.0000 C.2     1  UNL1       -0.0627
     19 C           6.1422    1.8189    0.0000 C.3     1  UNL1       -0.0305
     20 C           6.0402    4.8810    0.0000 C.3     1  UNL1        0.0023
     21 C           5.2409   -0.9457    0.0000 C.3     1  UNL1        0.0003
     22 C           3.2965    0.1769    0.0000 C.3     1  UNL1       -0.0423
     23 C           4.2665   -1.5183    0.0000 C.3     1  UNL1        0.1107
     24 C           3.3088    1.6306    0.0000 C.3     1  UNL1       -0.0585
     25 C           6.1589    0.7340    0.0000 C.2     1  UNL1       -0.0836
     26 C           3.2878   -0.9532    0.0000 C.3     1  UNL1       -0.0324
     27 C           3.2990    0.9005    0.0000 C.3     1  UNL1       -0.0553
     28 C           3.8082    5.7471    0.0000 C.3     1  UNL1       -0.0546
     29 C           3.3082    4.8810    0.0000 C.3     1  UNL1       -0.0546
     30 C           6.2737   -1.5106    0.0000 C.3     1  UNL1       -0.0401
     31 C           4.2575   -2.6955    0.0000 C.3     1  UNL1        0.1201
     32 C           6.2919   -2.6876    0.0000 C.3     1  UNL1       -0.0309
     33 C           5.2770   -3.2841    0.0000 C.3     1  UNL1       -0.0094
     34 C           3.4044   -2.0250    0.0000 C.2     1  UNL1        0.3151
     35 C           6.8019   -3.5478    0.0000 C.3     1  UNL1       -0.0597
     36 C           7.2918   -2.6761    0.0000 C.3     1  UNL1       -0.0597
     37 C           4.5517   -4.4024    0.0000 C.2     1  UNL1        0.3349
     38 C           4.2060   -5.3407    0.0000 C.2     1  UNL1        0.0293
     39 C           3.2205   -5.5106    0.0000 C.3     1  UNL1       -0.0333
     40 C           4.8459   -6.1092    0.0000 C.2     1  UNL1       -0.0774
     41 C           5.8314   -5.9394    0.0000 C.3     1  UNL1       -0.0461
     42 H           5.9180    2.7786    0.0000 H       1  UNL1        0.0315
     43 H           3.5720    4.3060    0.0000 H       1  UNL1        0.0314
     44 H           2.7801    2.4434    0.0000 H       1  UNL1        0.0271
     45 H           3.1766    1.7505    0.0000 H       1  UNL1        0.0271
     46 H           3.1936    3.9595    0.0000 H       1  UNL1        0.0268
     47 H           2.7865    3.2728    0.0000 H       1  UNL1        0.0268
     48 H           6.2523    3.2984    0.0000 H       1  UNL1        0.0273
     49 H           6.6508    3.9887    0.0000 H       1  UNL1        0.0273
     50 H           4.1872    4.1805    0.0000 H       1  UNL1        0.0566
     51 H           5.3676    4.1607    0.0000 H       1  UNL1        0.0566
     52 H           6.7546    1.7222    0.0000 H       1  UNL1        0.0310
     53 H           6.3422    2.4058    0.0000 H       1  UNL1        0.0310
     54 H           6.6508    4.7734    0.0000 H       1  UNL1        0.0317
     55 H           6.2523    5.4637    0.0000 H       1  UNL1        0.0317
     56 H           5.9687   -0.5066    0.0000 H       1  UNL1        0.0358
     57 H           3.0919    0.7622    0.0000 H       1  UNL1        0.0274
     58 H           2.6848    0.0755    0.0000 H       1  UNL1        0.0274
     59 H           3.1964    2.2403    0.0000 H       1  UNL1        0.0235
     60 H           2.6990    1.5182    0.0000 H       1  UNL1        0.0235
     61 H           3.4211    1.0208    0.0000 H       1  UNL1        0.0235
     62 H           6.6994    0.4303    0.0000 H       1  UNL1        0.0572
     63 H           2.6778   -0.8424    0.0000 H       1  UNL1        0.0277
     64 H           3.0742   -1.5353    0.0000 H       1  UNL1        0.0277
     65 H           3.4067    1.5110    0.0000 H       1  UNL1        0.0238
     66 H           2.6884    1.0081    0.0000 H       1  UNL1        0.0238
     67 H           3.1914    0.2899    0.0000 H       1  UNL1        0.0238
     68 H           4.3451    6.0571    0.0000 H       1  UNL1        0.0237
     69 H           3.4982    6.2840    0.0000 H       1  UNL1        0.0237
     70 H           3.2712    5.4371    0.0000 H       1  UNL1        0.0237
     71 H           3.3082    5.5010    0.0000 H       1  UNL1        0.0237
     72 H           2.6881    4.8810    0.0000 H       1  UNL1        0.0237
     73 H           3.3082    4.2610    0.0000 H       1  UNL1        0.0237
     74 H           6.8862   -1.6072    0.0000 H       1  UNL1        0.0276
     75 H           6.4738   -0.9237    0.0000 H       1  UNL1        0.0276
     76 H           3.6475   -2.5843    0.0000 H       1  UNL1        0.0745
     77 H           4.8796   -3.7601    0.0000 H       1  UNL1        0.0306
     78 H           5.6779   -3.7570    0.0000 H       1  UNL1        0.0306
     79 H           5.7111    6.6910    0.0000 H       1  UNL1        0.2128
     80 H           6.2686   -3.8640    0.0000 H       1  UNL1        0.0235
     81 H           7.1180   -4.0812    0.0000 H       1  UNL1        0.0235
     82 H           7.3352   -3.2316    0.0000 H       1  UNL1        0.0235
     83 H           7.2990   -3.2960    0.0000 H       1  UNL1        0.0235
     84 H           7.9118   -2.6689    0.0000 H       1  UNL1        0.0235
     85 H           7.2846   -2.0561    0.0000 H       1  UNL1        0.0235
     86 H           2.0000   -1.8458    0.0000 H       1  UNL1        0.2951
     87 H           3.1152   -4.8996    0.0000 H       1  UNL1        0.0280
     88 H           2.6095   -5.6159    0.0000 H       1  UNL1        0.0280
     89 H           3.3258   -6.1216    0.0000 H       1  UNL1        0.0280
     90 H           4.6316   -6.6910    0.0000 H       1  UNL1        0.0574
     91 H           5.9367   -6.5504    0.0000 H       1  UNL1        0.0272
     92 H           6.4424   -5.8341    0.0000 H       1  UNL1        0.0272
     93 H           5.7260   -5.3284    0.0000 H       1  UNL1        0.0272
@<TRIPOS>BOND
     1     1    16    1
     2     1    17    1
     3    16     2    1
     4     2    79    1
     5    31     3    1
     6     3    37    1
     7     4    34    1
     8     4    86    1
     9     5    34    2
    10     6    37    2
    11     7     9    1
    12     7    10    1
    13     7    15    1
    14     7    17    1
    15     8     9    1
    16     8    11    1
    17     8    13    1
    18     8    24    1
    19     9    19    1
    20     9    42    1
    21    10    12    1
    22    10    14    1
    23    10    43    1
    24    11    18    1
    25    11    22    1
    26    11    27    1
    27    12    16    1
    28    12    28    1
    29    12    29    1
    30    13    14    1
    31    13    44    1
    32    13    45    1
    33    14    46    1
    34    14    47    1
    35    15    20    1
    36    15    48    1
    37    15    49    1
    38    16    20    1
    39    17    50    1
    40    17    51    1
    41    18    21    1
    42    18    25    2
    43    19    25    1
    44    19    52    1
    45    19    53    1
    46    20    54    1
    47    20    55    1
    48    21    23    1
    49    21    30    1
    50    21    56    1
    51    22    26    1
    52    22    57    1
    53    22    58    1
    54    23    26    1
    55    23    31    1
    56    23    34    1
    57    24    59    1
    58    24    60    1
    59    24    61    1
    60    25    62    1
    61    26    63    1
    62    26    64    1
    63    27    65    1
    64    27    66    1
    65    27    67    1
    66    28    68    1
    67    28    69    1
    68    28    70    1
    69    29    71    1
    70    29    72    1
    71    29    73    1
    72    30    32    1
    73    30    74    1
    74    30    75    1
    75    31    33    1
    76    31    76    1
    77    32    33    1
    78    32    35    1
    79    32    36    1
    80    33    77    1
    81    33    78    1
    82    35    80    1
    83    35    81    1
    84    35    82    1
    85    36    83    1
    86    36    84    1
    87    36    85    1
    88    37    38    1
    89    38    39    1
    90    38    40    2
    91    39    87    1
    92    39    88    1
    93    39    89    1
    94    40    41    1
    95    40    90    1
    96    41    91    1
    97    41    92    1
    98    41    93    1
