@<TRIPOS>MOLECULE
IMPHY011411
 181 189 0 0 0
SMALL
GASTEIGER

@<TRIPOS>ATOM
      1 O          15.5595   -1.4130    0.0000 O.3     1  UNL1       -0.3449
      2 O           9.9307   -5.2020    0.0000 O.3     1  UNL1       -0.3944
      3 O           7.9579   -4.8046    0.0000 O.2     1  UNL1       -0.2970
      4 O           8.2331   -1.7820    0.0000 O.3     1  UNL1       -0.3880
      5 O          15.1958    0.2804    0.0000 O.3     1  UNL1       -0.3461
      6 O           6.0010   -3.6480    0.0000 O.3     1  UNL1       -0.3413
      7 O          17.5149   -0.9931    0.0000 O.3     1  UNL1       -0.3378
      8 O          18.1289    0.9104    0.0000 O.3     1  UNL1       -0.3400
      9 O          16.7874    2.3938    0.0000 O.3     1  UNL1       -0.3868
     10 O           4.2690   -3.6480    0.0000 O.3     1  UNL1       -0.3405
     11 O          19.2083   -0.6294    0.0000 O.3     1  UNL1       -0.3431
     12 O           6.0010   -5.6480    0.0000 O.3     1  UNL1       -0.3841
     13 O          19.7334    1.5626    0.0000 O.3     1  UNL1       -0.3405
     14 O           4.2690   -6.6480    0.0000 O.3     1  UNL1       -0.3864
     15 O          17.9348   -2.9485    0.0000 O.3     1  UNL1       -0.3841
     16 O           2.5369   -5.6480    0.0000 O.3     1  UNL1       -0.3865
     17 O          17.3757    2.7631    0.0000 O.3     1  UNL1       -0.3378
     18 O          19.8383   -3.5625    0.0000 O.3     1  UNL1       -0.3864
     19 O          21.3217   -2.2211    0.0000 O.3     1  UNL1       -0.3866
     20 O           2.5369   -2.6480    0.0000 O.3     1  UNL1       -0.3924
     21 O          18.6037    4.3418    0.0000 O.3     1  UNL1       -0.3864
     22 O          20.5848    4.0676    0.0000 O.3     1  UNL1       -0.3865
     23 O          17.6131    4.4788    0.0000 O.3     1  UNL1       -0.3461
     24 O          21.9519    3.0042    0.0000 O.3     1  UNL1       -0.3924
     25 O          15.3946    3.0373    0.0000 O.3     1  UNL1       -0.3841
     26 O          14.6414    4.8900    0.0000 O.3     1  UNL1       -0.3864
     27 O          15.8694    6.4687    0.0000 O.3     1  UNL1       -0.3869
     28 C          11.1532   -3.2810    0.0000 C.3     1  UNL1       -0.0203
     29 C          11.4639   -2.3305    0.0000 C.3     1  UNL1       -0.0293
     30 C          10.1747   -3.4872    0.0000 C.3     1  UNL1        0.0097
     31 C          12.4797   -2.1000    0.0000 C.3     1  UNL1       -0.0252
     32 C           9.5069   -2.7429    0.0000 C.3     1  UNL1       -0.0202
     33 C          13.1813   -2.8699    0.0000 C.3     1  UNL1       -0.0278
     34 C          11.8369   -4.0669    0.0000 C.3     1  UNL1       -0.0465
     35 C          10.7961   -1.5862    0.0000 C.3     1  UNL1       -0.0489
     36 C          12.8577   -3.8600    0.0000 C.3     1  UNL1       -0.0486
     37 C           9.8176   -1.7924    0.0000 C.3     1  UNL1       -0.0486
     38 C          14.2447   -2.6544    0.0000 C.3     1  UNL1       -0.0052
     39 C           8.5991   -3.1480    0.0000 C.3     1  UNL1        0.0495
     40 C           9.6740   -4.3460    0.0000 C.3     1  UNL1        0.0147
     41 C          12.7928   -1.0612    0.0000 C.3     1  UNL1       -0.0447
     42 C          11.1865   -4.2805    0.0000 C.3     1  UNL1       -0.0587
     43 C          10.5477   -4.4151    0.0000 C.3     1  UNL1        0.0510
     44 C          14.5818   -1.6230    0.0000 C.3     1  UNL1        0.0672
     45 C          11.8062   -1.3609    0.0000 C.3     1  UNL1       -0.0590
     46 C           8.7022   -4.1368    0.0000 C.2     1  UNL1        0.1400
     47 C          13.8509   -0.8211    0.0000 C.3     1  UNL1       -0.0255
     48 C           7.7331   -2.6480    0.0000 C.3     1  UNL1        0.0757
     49 C          15.1940   -2.9687    0.0000 C.3     1  UNL1       -0.0572
     50 C          14.4471   -3.6336    0.0000 C.3     1  UNL1       -0.0572
     51 C           6.8671   -2.1480    0.0000 C.3     1  UNL1        0.0065
     52 C           7.2331   -3.5141    0.0000 C.3     1  UNL1       -0.0353
     53 C          15.8665   -0.4613    0.0000 C.3     1  UNL1        0.1882
     54 C           6.0010   -2.6480    0.0000 C.3     1  UNL1        0.0827
     55 C          16.8442   -0.2513    0.0000 C.3     1  UNL1        0.1410
     56 C           5.1350   -2.1480    0.0000 C.2     1  UNL1       -0.0567
     57 C          17.1512    0.7004    0.0000 C.3     1  UNL1        0.1206
     58 C          15.5027    1.2321    0.0000 C.3     1  UNL1        0.0792
     59 C          16.4804    1.4421    0.0000 C.3     1  UNL1        0.1073
     60 C           5.1350   -4.1480    0.0000 C.3     1  UNL1        0.1886
     61 C           5.1350   -1.1480    0.0000 C.2     1  UNL1       -0.0772
     62 C          18.4666   -1.3001    0.0000 C.3     1  UNL1        0.1884
     63 C           5.1350   -5.1480    0.0000 C.3     1  UNL1        0.1341
     64 C           4.2690   -0.6480    0.0000 C.3     1  UNL1       -0.0440
     65 C           6.0010   -0.6480    0.0000 C.3     1  UNL1       -0.0440
     66 C          18.7428    1.6997    0.0000 C.3     1  UNL1        0.1888
     67 C           4.2690   -5.6480    0.0000 C.3     1  UNL1        0.1141
     68 C          18.6766   -2.2778    0.0000 C.3     1  UNL1        0.1341
     69 C           3.4030   -4.1480    0.0000 C.3     1  UNL1        0.1130
     70 C           3.4030   -5.1480    0.0000 C.3     1  UNL1        0.1119
     71 C          18.3663    2.6261    0.0000 C.3     1  UNL1        0.1406
     72 C          19.6283   -2.5848    0.0000 C.3     1  UNL1        0.1140
     73 C          20.1600   -0.9364    0.0000 C.3     1  UNL1        0.0873
     74 C          20.3700   -1.9141    0.0000 C.3     1  UNL1        0.1095
     75 C           2.5369   -3.6480    0.0000 C.3     1  UNL1        0.0730
     76 C          18.9803    3.4154    0.0000 C.3     1  UNL1        0.1144
     77 C          20.3474    2.3519    0.0000 C.3     1  UNL1        0.1130
     78 C          19.9708    3.2783    0.0000 C.3     1  UNL1        0.1119
     79 C          20.9017   -0.2656    0.0000 C.3     1  UNL1       -0.0361
     80 C          21.3380    2.2149    0.0000 C.3     1  UNL1        0.0730
     81 C          16.9991    3.6895    0.0000 C.3     1  UNL1        0.1881
     82 C          16.0086    3.8266    0.0000 C.3     1  UNL1        0.1341
     83 C          15.6320    4.7530    0.0000 C.3     1  UNL1        0.1137
     84 C          17.2365    5.4052    0.0000 C.3     1  UNL1        0.0792
     85 C          16.2460    5.5423    0.0000 C.3     1  UNL1        0.1069
     86 H          12.0364   -2.9588    0.0000 H       1  UNL1        0.0312
     87 H           8.8755   -2.1739    0.0000 H       1  UNL1        0.0315
     88 H          13.7465   -3.5047    0.0000 H       1  UNL1        0.0312
     89 H          11.3063   -4.3878    0.0000 H       1  UNL1        0.0271
     90 H          12.0622   -4.6445    0.0000 H       1  UNL1        0.0271
     91 H          11.3224   -1.2586    0.0000 H       1  UNL1        0.0268
     92 H          10.5648   -1.0109    0.0000 H       1  UNL1        0.0268
     93 H          12.8751   -4.4798    0.0000 H       1  UNL1        0.0268
     94 H          13.4713   -3.9489    0.0000 H       1  UNL1        0.0268
     95 H           9.7970   -1.1728    0.0000 H       1  UNL1        0.0268
     96 H           9.2038   -1.7051    0.0000 H       1  UNL1        0.0268
     97 H           7.8860   -3.6107    0.0000 H       1  UNL1        0.0408
     98 H           9.4805   -4.9350    0.0000 H       1  UNL1        0.0348
     99 H          10.2394   -4.6003    0.0000 H       1  UNL1        0.0348
    100 H          12.7611   -0.4420    0.0000 H       1  UNL1        0.0271
    101 H          12.1774   -0.9865    0.0000 H       1  UNL1        0.0271
    102 H          10.5668   -4.3011    0.0000 H       1  UNL1        0.0235
    103 H          11.2071   -4.9001    0.0000 H       1  UNL1        0.0235
    104 H          11.8061   -4.2599    0.0000 H       1  UNL1        0.0235
    105 H          10.9618   -4.8765    0.0000 H       1  UNL1        0.0563
    106 H          11.0741   -4.0874    0.0000 H       1  UNL1        0.0563
    107 H          14.7710   -1.0326    0.0000 H       1  UNL1        0.0602
    108 H          12.2644   -0.9433    0.0000 H       1  UNL1        0.0235
    109 H          11.3886   -0.9026    0.0000 H       1  UNL1        0.0235
    110 H          11.3479   -1.7785    0.0000 H       1  UNL1        0.0235
    111 H          14.3739   -0.4881    0.0000 H       1  UNL1        0.0290
    112 H          13.6123   -0.2488    0.0000 H       1  UNL1        0.0290
    113 H          13.8400   -3.7592    0.0000 H       1  UNL1        0.0236
    114 H          14.5727   -4.2408    0.0000 H       1  UNL1        0.0236
    115 H          14.9991   -3.5572    0.0000 H       1  UNL1        0.0236
    116 H          15.7826   -3.1636    0.0000 H       1  UNL1        0.0236
    117 H          15.3889   -2.3801    0.0000 H       1  UNL1        0.0236
    118 H          15.0543   -3.5081    0.0000 H       1  UNL1        0.0236
    119 H           7.2656   -1.6731    0.0000 H       1  UNL1        0.0321
    120 H           6.4685   -1.6731    0.0000 H       1  UNL1        0.0321
    121 H           6.6962   -3.2041    0.0000 H       1  UNL1        0.0257
    122 H           6.9231   -4.0510    0.0000 H       1  UNL1        0.0257
    123 H           7.7700   -3.8241    0.0000 H       1  UNL1        0.0257
    124 H          10.1620   -5.7773    0.0000 H       1  UNL1        0.2094
    125 H           7.9231   -1.2451    0.0000 H       1  UNL1        0.2102
    126 H          16.2823   -0.9212    0.0000 H       1  UNL1        0.0937
    127 H           6.5380   -2.9580    0.0000 H       1  UNL1        0.0642
    128 H          17.4503   -0.1212    0.0000 H       1  UNL1        0.0675
    129 H           4.5981   -2.4580    0.0000 H       1  UNL1        0.0597
    130 H          17.3415    1.2904    0.0000 H       1  UNL1        0.0651
    131 H          15.4798    1.8517    0.0000 H       1  UNL1        0.0587
    132 H          14.8886    1.3171    0.0000 H       1  UNL1        0.0587
    133 H          16.0646    1.9020    0.0000 H       1  UNL1        0.0643
    134 H           5.6720   -4.4580    0.0000 H       1  UNL1        0.0938
    135 H          18.0067   -1.7159    0.0000 H       1  UNL1        0.0938
    136 H           5.1350   -5.7680    0.0000 H       1  UNL1        0.0671
    137 H          16.3716    2.8537    0.0000 H       1  UNL1        0.2100
    138 H           4.5790   -0.1111    0.0000 H       1  UNL1        0.0274
    139 H           3.7320   -0.3380    0.0000 H       1  UNL1        0.0274
    140 H           3.9590   -1.1850    0.0000 H       1  UNL1        0.0274
    141 H           6.3110   -1.1850    0.0000 H       1  UNL1        0.0274
    142 H           6.5380   -0.3380    0.0000 H       1  UNL1        0.0274
    143 H           5.6910   -0.1111    0.0000 H       1  UNL1        0.0274
    144 H          18.9763    1.1253    0.0000 H       1  UNL1        0.0938
    145 H           3.7320   -5.9580    0.0000 H       1  UNL1        0.0648
    146 H          18.8068   -2.8840    0.0000 H       1  UNL1        0.0671
    147 H           3.4030   -3.5280    0.0000 H       1  UNL1        0.0647
    148 H           2.8660   -4.8380    0.0000 H       1  UNL1        0.0647
    149 H          17.9856    2.1367    0.0000 H       1  UNL1        0.0675
    150 H          20.2183   -2.7751    0.0000 H       1  UNL1        0.0648
    151 H           6.5380   -5.3380    0.0000 H       1  UNL1        0.2101
    152 H          20.0298   -0.3302    0.0000 H       1  UNL1        0.0621
    153 H          20.8299   -1.4982    0.0000 H       1  UNL1        0.0646
    154 H           1.9264   -3.5404    0.0000 H       1  UNL1        0.0584
    155 H           2.3249   -4.2306    0.0000 H       1  UNL1        0.0584
    156 H          19.3609    3.9048    0.0000 H       1  UNL1        0.0648
    157 H          20.5809    1.7776    0.0000 H       1  UNL1        0.0647
    158 H           3.7320   -6.9580    0.0000 H       1  UNL1        0.2100
    159 H          18.0650   -3.5546    0.0000 H       1  UNL1        0.2101
    160 H          20.5850    3.1933    0.0000 H       1  UNL1        0.0647
    161 H           2.0000   -5.3380    0.0000 H       1  UNL1        0.2100
    162 H          21.3176   -0.7255    0.0000 H       1  UNL1        0.0255
    163 H          21.3616    0.1502    0.0000 H       1  UNL1        0.0255
    164 H          20.4859    0.1942    0.0000 H       1  UNL1        0.0255
    165 H          20.4283   -3.7528    0.0000 H       1  UNL1        0.2100
    166 H          21.7816   -1.8052    0.0000 H       1  UNL1        0.2100
    167 H          21.1476    1.6248    0.0000 H       1  UNL1        0.0584
    168 H          21.8860    1.9249    0.0000 H       1  UNL1        0.0584
    169 H           2.0000   -2.3380    0.0000 H       1  UNL1        0.2095
    170 H          16.6185    3.2001    0.0000 H       1  UNL1        0.0937
    171 H          18.9844    4.8311    0.0000 H       1  UNL1        0.2100
    172 H          20.3513    4.6420    0.0000 H       1  UNL1        0.2100
    173 H          15.3944    3.9116    0.0000 H       1  UNL1        0.0671
    174 H          22.5661    2.9192    0.0000 H       1  UNL1        0.2095
    175 H          15.3985    5.3273    0.0000 H       1  UNL1        0.0647
    176 H          17.8427    5.5354    0.0000 H       1  UNL1        0.0587
    177 H          17.2136    6.0248    0.0000 H       1  UNL1        0.0587
    178 H          16.6267    6.0317    0.0000 H       1  UNL1        0.0643
    179 H          14.7804    3.1223    0.0000 H       1  UNL1        0.2101
    180 H          14.4080    5.4644    0.0000 H       1  UNL1        0.2100
    181 H          16.2501    6.9580    0.0000 H       1  UNL1        0.2100
@<TRIPOS>BOND
     1    44     1    1
     2    53     1    1
     3     2    43    1
     4     2   124    1
     5     3    46    2
     6    48     4    1
     7     4   125    1
     8     5    53    1
     9     5    58    1
    10    54     6    1
    11    60     6    1
    12    55     7    1
    13    62     7    1
    14    57     8    1
    15    66     8    1
    16    59     9    1
    17     9   137    1
    18    10    60    1
    19    10    69    1
    20    11    62    1
    21    11    73    1
    22    63    12    1
    23    12   151    1
    24    13    66    1
    25    13    77    1
    26    67    14    1
    27    14   158    1
    28    68    15    1
    29    15   159    1
    30    70    16    1
    31    16   161    1
    32    71    17    1
    33    81    17    1
    34    72    18    1
    35    18   165    1
    36    74    19    1
    37    19   166    1
    38    20    75    1
    39    20   169    1
    40    76    21    1
    41    21   171    1
    42    78    22    1
    43    22   172    1
    44    23    81    1
    45    23    84    1
    46    24    80    1
    47    24   174    1
    48    82    25    1
    49    25   179    1
    50    83    26    1
    51    26   180    1
    52    85    27    1
    53    27   181    1
    54    28    29    1
    55    28    30    1
    56    28    34    1
    57    28    42    1
    58    29    31    1
    59    29    35    1
    60    29    86    1
    61    30    32    1
    62    30    40    1
    63    30    43    1
    64    31    33    1
    65    31    41    1
    66    31    45    1
    67    32    37    1
    68    32    39    1
    69    32    87    1
    70    33    36    1
    71    33    38    1
    72    33    88    1
    73    34    36    1
    74    34    89    1
    75    34    90    1
    76    35    37    1
    77    35    91    1
    78    35    92    1
    79    36    93    1
    80    36    94    1
    81    37    95    1
    82    37    96    1
    83    38    44    1
    84    38    49    1
    85    38    50    1
    86    39    46    1
    87    39    48    1
    88    39    97    1
    89    40    46    1
    90    40    98    1
    91    40    99    1
    92    41    47    1
    93    41   100    1
    94    41   101    1
    95    42   102    1
    96    42   103    1
    97    42   104    1
    98    43   105    1
    99    43   106    1
   100    44    47    1
   101    44   107    1
   102    45   108    1
   103    45   109    1
   104    45   110    1
   105    47   111    1
   106    47   112    1
   107    48    51    1
   108    48    52    1
   109    49   115    1
   110    49   116    1
   111    49   117    1
   112    50   113    1
   113    50   114    1
   114    50   118    1
   115    51    54    1
   116    51   119    1
   117    51   120    1
   118    52   121    1
   119    52   122    1
   120    52   123    1
   121    53    55    1
   122    53   126    1
   123    54    56    1
   124    54   127    1
   125    55    57    1
   126    55   128    1
   127    56    61    2
   128    56   129    1
   129    57    59    1
   130    57   130    1
   131    58    59    1
   132    58   131    1
   133    58   132    1
   134    59   133    1
   135    60    63    1
   136    60   134    1
   137    61    64    1
   138    61    65    1
   139    62    68    1
   140    62   135    1
   141    63    67    1
   142    63   136    1
   143    64   138    1
   144    64   139    1
   145    64   140    1
   146    65   141    1
   147    65   142    1
   148    65   143    1
   149    66    71    1
   150    66   144    1
   151    67    70    1
   152    67   145    1
   153    68    72    1
   154    68   146    1
   155    69    70    1
   156    69    75    1
   157    69   147    1
   158    70   148    1
   159    71    76    1
   160    71   149    1
   161    72    74    1
   162    72   150    1
   163    73    74    1
   164    73    79    1
   165    73   152    1
   166    74   153    1
   167    75   154    1
   168    75   155    1
   169    76    78    1
   170    76   156    1
   171    77    78    1
   172    77    80    1
   173    77   157    1
   174    78   160    1
   175    79   162    1
   176    79   163    1
   177    79   164    1
   178    80   167    1
   179    80   168    1
   180    81    82    1
   181    81   170    1
   182    82    83    1
   183    82   173    1
   184    83    85    1
   185    83   175    1
   186    84    85    1
   187    84   176    1
   188    84   177    1
   189    85   178    1
