@<TRIPOS>MOLECULE
IMPHY007124
 34 35 0 0 0
SMALL
GASTEIGER

@<TRIPOS>ATOM
      1 CL          6.0682   -1.2704    0.0000 Cl      1  UNL1        0.0000
      2 O           6.0682   -0.2704    0.0000 O.2     2  UNL2       -0.1997
      3 O           7.8003    1.7296    0.0000 O.3     2  UNL2       -0.4995
      4 O           4.3198    2.7642    0.0000 O.3     2  UNL2       -0.5057
      5 O           2.5381   -0.2945    0.0000 O.3     2  UNL2       -0.5063
      6 O          10.3984    0.2296    0.0000 O.3     2  UNL2       -0.5032
      7 O           8.6663   -2.7704    0.0000 O.3     2  UNL2       -0.5032
      8 O          10.3984   -1.7704    0.0000 O.3     2  UNL2       -0.5009
      9 C           5.2022    1.2296    0.0000 C.ar    2  UNL2        0.1241
     10 C           6.9343    0.2296    0.0000 C.ar    2  UNL2        0.4045
     11 C           5.2022    0.2296    0.0000 C.ar    2  UNL2        0.3708
     12 C           7.8003   -0.2704    0.0000 C.ar    2  UNL2        0.0899
     13 C           6.9343    1.2296    0.0000 C.ar    2  UNL2        0.2238
     14 C           6.0682    1.7296    0.0000 C.ar    2  UNL2        0.0090
     15 C           4.3083    1.7643    0.0000 C.ar    2  UNL2        0.1366
     16 C           4.3083   -0.3051    0.0000 C.ar    2  UNL2        0.0847
     17 C           7.8003   -1.2704    0.0000 C.ar    2  UNL2       -0.0000
     18 C           8.6663    0.2296    0.0000 C.ar    2  UNL2       -0.0000
     19 C           3.4022    0.2088    0.0000 C.ar    2  UNL2        0.1293
     20 C           3.4022    1.2504    0.0000 C.ar    2  UNL2        0.0225
     21 C           9.5323   -0.2704    0.0000 C.ar    2  UNL2        0.1628
     22 C           8.6663   -1.7704    0.0000 C.ar    2  UNL2        0.1628
     23 C           9.5323   -1.2704    0.0000 C.ar    2  UNL2        0.2006
     24 H           6.0682    2.3496    0.0000 H       2  UNL2        0.0667
     25 H           4.3154   -0.9250    0.0000 H       2  UNL2        0.0749
     26 H           7.2634   -1.5804    0.0000 H       2  UNL2        0.0664
     27 H           8.6663    0.8496    0.0000 H       2  UNL2        0.0664
     28 H           2.8665    1.5625    0.0000 H       2  UNL2        0.0691
     29 H           7.8003    2.3496    0.0000 H       2  UNL2        0.2925
     30 H           3.7865    3.0804    0.0000 H       2  UNL2        0.2922
     31 H           2.0000    0.0134    0.0000 H       2  UNL2        0.2921
     32 H          10.3984    0.8496    0.0000 H       2  UNL2        0.2923
     33 H           8.1294   -3.0804    0.0000 H       2  UNL2        0.2923
     34 H          10.3984   -2.3904    0.0000 H       2  UNL2        0.2924
@<TRIPOS>UNITY_ATOM_ATTR
1 1
charge -1
2 1
charge 1
@<TRIPOS>BOND
     1     2    10   ar
     2     2    11   ar
     3     3    13    1
     4     3    29    1
     5     4    15    1
     6     4    30    1
     7     5    19    1
     8     5    31    1
     9     6    21    1
    10     6    32    1
    11     7    22    1
    12     7    33    1
    13     8    23    1
    14     8    34    1
    15     9    11   ar
    16     9    14   ar
    17     9    15   ar
    18    10    12    1
    19    10    13   ar
    20    11    16   ar
    21    12    17   ar
    22    12    18   ar
    23    13    14   ar
    24    14    24    1
    25    15    20   ar
    26    16    19   ar
    27    16    25    1
    28    17    22   ar
    29    17    26    1
    30    18    21   ar
    31    18    27    1
    32    19    20   ar
    33    20    28    1
    34    21    23   ar
    35    22    23   ar
