@<TRIPOS>MOLECULE
IMPHY014537
 46 50 0 0 0
SMALL
GASTEIGER

@<TRIPOS>ATOM
      1 O           6.5322    3.1588    0.0000 O.3     1  UNL1       -0.3663
      2 O           4.6501   -2.0896    0.0000 O.3     1  UNL1       -0.3759
      3 O           5.5161    0.4104    0.0000 O.2     1  UNL1       -0.2873
      4 N           6.6569    0.4827    0.0000 N.3     1  UNL1       -0.2991
      5 N           2.9180   -0.0896    0.0000 N.2     1  UNL1       -0.2482
      6 C           5.1891    1.6935    0.0000 C.3     1  UNL1        0.0174
      7 C           5.8797    2.4084    0.0000 C.3     1  UNL1        0.0936
      8 C           6.8554    2.2184    0.0000 C.3     1  UNL1        0.0984
      9 C           6.1491    1.3622    0.0000 C.3     1  UNL1        0.0074
     10 C           7.2274    1.2967    0.0000 C.3     1  UNL1        0.0277
     11 C           4.2470    1.3144    0.0000 C.3     1  UNL1        0.0024
     12 C           4.6306    2.5230    0.0000 C.3     1  UNL1       -0.0463
     13 C           6.4638   -0.5143    0.0000 C.3     1  UNL1        0.0024
     14 C           3.7841    0.4104    0.0000 C.2     1  UNL1        0.0881
     15 C           5.6644   -1.1407    0.0000 C.3     1  UNL1        0.0005
     16 C           4.6501   -1.0896    0.0000 C.3     1  UNL1        0.1572
     17 C           3.6330    2.4541    0.0000 C.3     1  UNL1       -0.0646
     18 C           4.6501   -0.0896    0.0000 C.2     1  UNL1        0.2130
     19 C           3.7841   -1.5896    0.0000 C.ar    1  UNL1        0.0169
     20 C           2.9180   -1.0896    0.0000 C.ar    1  UNL1        0.0706
     21 C           3.8001   -2.6311    0.0000 C.ar    1  UNL1       -0.0534
     22 C           2.0080   -1.5964    0.0000 C.ar    1  UNL1       -0.0359
     23 C           2.9021   -3.1588    0.0000 C.ar    1  UNL1       -0.0613
     24 C           2.0000   -2.6380    0.0000 C.ar    1  UNL1       -0.0597
     25 H           5.6935    2.9997    0.0000 H       1  UNL1        0.0628
     26 H           7.2499    2.6967    0.0000 H       1  UNL1        0.0635
     27 H           6.7516    1.5086    0.0000 H       1  UNL1        0.0433
     28 H           6.1783    1.9816    0.0000 H       1  UNL1        0.0433
     29 H           7.6579    0.8505    0.0000 H       1  UNL1        0.0453
     30 H           7.7475    1.6342    0.0000 H       1  UNL1        0.0453
     31 H           4.1867    1.9314    0.0000 H       1  UNL1        0.0336
     32 H           3.6379    1.4302    0.0000 H       1  UNL1        0.0336
     33 H           5.1972    2.7748    0.0000 H       1  UNL1        0.0269
     34 H           4.4811    3.1247    0.0000 H       1  UNL1        0.0269
     35 H           6.6934   -1.0903    0.0000 H       1  UNL1        0.0428
     36 H           7.0811   -0.4561    0.0000 H       1  UNL1        0.0428
     37 H           5.4602   -1.7261    0.0000 H       1  UNL1        0.0313
     38 H           6.1687   -1.5014    0.0000 H       1  UNL1        0.0313
     39 H           3.5902    3.0726    0.0000 H       1  UNL1        0.0230
     40 H           3.0144    2.4113    0.0000 H       1  UNL1        0.0230
     41 H           3.6757    1.8355    0.0000 H       1  UNL1        0.0230
     42 H           5.1870   -2.3996    0.0000 H       1  UNL1        0.2112
     43 H           4.3406   -2.9348    0.0000 H       1  UNL1        0.0622
     44 H           1.4747   -1.2802    0.0000 H       1  UNL1        0.0639
     45 H           2.9045   -3.7788    0.0000 H       1  UNL1        0.0618
     46 H           1.4619   -2.9460    0.0000 H       1  UNL1        0.0618
@<TRIPOS>BOND
     1     7     1    1
     2     8     1    1
     3    16     2    1
     4     2    42    1
     5     3    18    2
     6     4     9    1
     7     4    10    1
     8     4    13    1
     9     5    14    2
    10     5    20    1
    11     6     7    1
    12     6     9    1
    13     6    11    1
    14     6    12    1
    15     7     8    1
    16     7    25    1
    17     8    10    1
    18     8    26    1
    19     9    27    1
    20     9    28    1
    21    10    29    1
    22    10    30    1
    23    11    14    1
    24    11    31    1
    25    11    32    1
    26    12    17    1
    27    12    33    1
    28    12    34    1
    29    13    15    1
    30    13    35    1
    31    13    36    1
    32    14    18    1
    33    15    16    1
    34    15    37    1
    35    15    38    1
    36    16    18    1
    37    16    19    1
    38    17    39    1
    39    17    40    1
    40    17    41    1
    41    19    20   ar
    42    19    21   ar
    43    20    22   ar
    44    21    23   ar
    45    21    43    1
    46    22    24   ar
    47    22    44    1
    48    23    24   ar
    49    23    45    1
    50    24    46    1
