@<TRIPOS>MOLECULE
IMPHY015656
 18 18 0 0 0
SMALL
GASTEIGER

@<TRIPOS>ATOM
      1 O           4.7770   -0.4755    0.0000 O.3     1  UNL1       -0.4593
      2 O           2.8090    0.2239    0.0000 O.2     1  UNL1       -0.4564
      3 O           5.3122    1.1718    0.0000 O.2     1  UNL1       -0.2415
      4 C           5.7281   -0.7845    0.0000 C.3     1  UNL1        0.0901
      5 C           3.6180    0.8116    0.0000 C.ar    1  UNL1        0.2112
      6 C           4.5691    0.5026    0.0000 C.2     1  UNL1        0.3748
      7 C           3.3090    1.7627    0.0000 C.ar    1  UNL1       -0.0093
      8 C           5.9360   -1.7627    0.0000 C.3     1  UNL1       -0.0306
      9 C           2.3090    1.7627    0.0000 C.ar    1  UNL1       -0.0231
     10 C           2.0000    0.8116    0.0000 C.ar    1  UNL1        0.0929
     11 H           6.3477   -0.7629    0.0000 H       1  UNL1        0.0695
     12 H           5.8144   -0.1706    0.0000 H       1  UNL1        0.0695
     13 H           5.3295   -1.8916    0.0000 H       1  UNL1        0.0262
     14 H           6.0649   -2.3691    0.0000 H       1  UNL1        0.0262
     15 H           6.5424   -1.6338    0.0000 H       1  UNL1        0.0262
     16 H           3.6734    2.2643    0.0000 H       1  UNL1        0.0657
     17 H           1.9446    2.2643    0.0000 H       1  UNL1        0.0649
     18 H           1.4103    0.6200    0.0000 H       1  UNL1        0.1029
@<TRIPOS>BOND
     1     1     4    1
     2     1     6    1
     3     2     5   ar
     4     2    10   ar
     5     3     6    2
     6     4     8    1
     7     4    11    1
     8     4    12    1
     9     5     6    1
    10     5     7   ar
    11     7     9   ar
    12     7    16    1
    13     8    13    1
    14     8    14    1
    15     8    15    1
    16     9    10   ar
    17     9    17    1
    18    10    18    1
