@<TRIPOS>MOLECULE
IMPHY003270
 33 34 0 0 0
SMALL
GASTEIGER

@<TRIPOS>ATOM
      1 C           2.9881    1.4197    0.0000 C.3     1  UNL1       -0.0215
      2 C           5.3742    0.2488    0.0000 C.ar    1  UNL1       -0.0145
      3 C           3.6155    0.6410    0.0000 C.ar    1  UNL1       -0.0442
      4 C           5.3792   -0.7512    0.0000 C.ar    1  UNL1       -0.0147
      5 C           4.5893    0.8684    0.0000 C.ar    1  UNL1       -0.0503
      6 C           6.3189    0.5582    0.0000 C.ar    1  UNL1       -0.0427
      7 C           4.6005   -1.3786    0.0000 C.ar    1  UNL1       -0.0427
      8 C           3.1861   -0.2621    0.0000 C.ar    1  UNL1       -0.0580
      9 C           6.3269   -1.0512    0.0000 C.ar    1  UNL1       -0.0535
     10 C           2.0000    1.2657    0.0000 C.3     1  UNL1       -0.0586
     11 C           3.3488    2.3524    0.0000 C.3     1  UNL1       -0.0586
     12 C           6.9065   -0.2436    0.0000 C.ar    1  UNL1       -0.0577
     13 C           3.6244   -1.1609    0.0000 C.ar    1  UNL1       -0.0580
     14 C           6.6248    1.5103    0.0000 C.3     1  UNL1       -0.0391
     15 C           4.8278   -2.3524    0.0000 C.3     1  UNL1       -0.0391
     16 H           2.7644    0.8414    0.0000 H       1  UNL1        0.0343
     17 H           4.7242    1.4735    0.0000 H       1  UNL1        0.0626
     18 H           2.5661   -0.2652    0.0000 H       1  UNL1        0.0620
     19 H           6.5224   -1.6396    0.0000 H       1  UNL1        0.0624
     20 H           3.9270    2.1288    0.0000 H       1  UNL1        0.0235
     21 H           1.9045    1.8783    0.0000 H       1  UNL1        0.0235
     22 H           1.3874    1.1703    0.0000 H       1  UNL1        0.0235
     23 H           2.0955    0.6531    0.0000 H       1  UNL1        0.0235
     24 H           3.5724    2.9306    0.0000 H       1  UNL1        0.0235
     25 H           2.7705    2.5760    0.0000 H       1  UNL1        0.0235
     26 H           3.2403   -1.6476    0.0000 H       1  UNL1        0.0620
     27 H           7.5265   -0.2405    0.0000 H       1  UNL1        0.0621
     28 H           7.2151    1.3206    0.0000 H       1  UNL1        0.0278
     29 H           6.8145    2.1006    0.0000 H       1  UNL1        0.0278
     30 H           6.0345    1.7000    0.0000 H       1  UNL1        0.0278
     31 H           4.2241   -2.4934    0.0000 H       1  UNL1        0.0278
     32 H           4.9688   -2.9562    0.0000 H       1  UNL1        0.0278
     33 H           5.4316   -2.2114    0.0000 H       1  UNL1        0.0278
@<TRIPOS>BOND
     1     1     3    1
     2     1    10    1
     3     1    11    1
     4     1    16    1
     5     2     4    1
     6     2     5   ar
     7     2     6   ar
     8     3     5   ar
     9     3     8   ar
    10     4     7   ar
    11     4     9   ar
    12     5    17    1
    13     6    12   ar
    14     6    14    1
    15     7    13   ar
    16     7    15    1
    17     8    13   ar
    18     8    18    1
    19     9    12   ar
    20     9    19    1
    21    10    21    1
    22    10    22    1
    23    10    23    1
    24    11    20    1
    25    11    24    1
    26    11    25    1
    27    12    27    1
    28    13    26    1
    29    14    28    1
    30    14    29    1
    31    14    30    1
    32    15    31    1
    33    15    32    1
    34    15    33    1
