@<TRIPOS>MOLECULE
IMPHY008382
 66 72 0 0 0
SMALL
GASTEIGER

@<TRIPOS>ATOM
      1 O           5.4275   -1.7756    0.0000 O.3     1  UNL1       -0.3512
      2 O           3.3389    1.8951    0.0000 O.3     1  UNL1       -0.3692
      3 O           8.1221   -2.3172    0.0000 O.3     1  UNL1       -0.4542
      4 O           6.1435    2.0702    0.0000 O.3     1  UNL1       -0.4639
      5 O           4.5896   -2.3034    0.0000 O.2     1  UNL1       -0.2967
      6 O           7.2161   -3.8380    0.0000 O.2     1  UNL1       -0.2478
      7 O          10.5529   -0.4109    0.0000 O.3     1  UNL1       -0.4280
      8 O           6.0560    3.8380    0.0000 O.2     1  UNL1       -0.2508
      9 O          10.1116   -2.1375    0.0000 O.3     1  UNL1       -0.3542
     10 O          10.4391    1.3674    0.0000 O.2     1  UNL1       -0.2455
     11 C           6.3380   -1.2688    0.0000 C.3     1  UNL1        0.1283
     12 C           5.4720   -0.7688    0.0000 C.3     1  UNL1        0.0622
     13 C           5.4720    0.2312    0.0000 C.3     1  UNL1       -0.0146
     14 C           4.5780    0.7659    0.0000 C.3     1  UNL1        0.0412
     15 C           7.2040   -0.7688    0.0000 C.3     1  UNL1        0.0420
     16 C           6.3220   -2.3103    0.0000 C.3     1  UNL1        0.1861
     17 C           3.6720    0.2520    0.0000 C.3     1  UNL1        0.0057
     18 C           6.3380    0.7312    0.0000 C.3     1  UNL1       -0.0478
     19 C           7.2040    0.2312    0.0000 C.3     1  UNL1       -0.0408
     20 C           4.3680    1.7798    0.0000 C.3     1  UNL1        0.0788
     21 C           4.5780   -1.3034    0.0000 C.2     1  UNL1        0.1427
     22 C           3.6720   -0.7896    0.0000 C.3     1  UNL1        0.0126
     23 C           8.1140   -1.2756    0.0000 C.3     1  UNL1        0.1384
     24 C           2.9097    0.9528    0.0000 C.3     1  UNL1        0.0682
     25 C           6.1221   -1.8945    0.0000 C.3     1  UNL1       -0.0498
     26 C           5.6374    0.9684    0.0000 C.3     1  UNL1        0.1011
     27 C           8.0701   -0.2688    0.0000 C.3     1  UNL1       -0.0531
     28 C           7.2200   -2.8380    0.0000 C.2     1  UNL1        0.3398
     29 C           4.6907    2.8090    0.0000 C.3     1  UNL1        0.0718
     30 C           8.9742   -0.7656    0.0000 C.2     1  UNL1        0.0451
     31 C           2.0000    1.3681    0.0000 C.3     1  UNL1       -0.0358
     32 C           2.2336    0.2160    0.0000 C.3     1  UNL1       -0.0358
     33 C           5.5855    2.9557    0.0000 C.2     1  UNL1        0.3096
     34 C           9.8924   -1.1618    0.0000 C.3     1  UNL1        0.2293
     35 C           9.0672    0.2300    0.0000 C.2     1  UNL1        0.0312
     36 C          10.0429    0.4492    0.0000 C.2     1  UNL1        0.3346
     37 H           6.2081   -0.1938    0.0000 H       1  UNL1        0.0318
     38 H           5.8886   -3.0415    0.0000 H       1  UNL1        0.0743
     39 H           2.8937   -0.0897    0.0000 H       1  UNL1        0.0340
     40 H           6.7366    1.2062    0.0000 H       1  UNL1        0.0269
     41 H           5.9395    1.2062    0.0000 H       1  UNL1        0.0269
     42 H           7.8146    0.1236    0.0000 H       1  UNL1        0.0273
     43 H           7.4161    0.8138    0.0000 H       1  UNL1        0.0273
     44 H           3.9038    2.4919    0.0000 H       1  UNL1        0.0608
     45 H           3.0611   -0.6835    0.0000 H       1  UNL1        0.0346
     46 H           3.4629   -1.3733    0.0000 H       1  UNL1        0.0346
     47 H           8.6539   -1.5804    0.0000 H       1  UNL1        0.0791
     48 H           5.5852   -2.2046    0.0000 H       1  UNL1        0.0240
     49 H           6.4322   -2.4314    0.0000 H       1  UNL1        0.0240
     50 H           6.6590   -1.5845    0.0000 H       1  UNL1        0.0240
     51 H           5.6265    0.3485    0.0000 H       1  UNL1        0.0704
     52 H           6.2419    0.8307    0.0000 H       1  UNL1        0.0704
     53 H           8.3801   -0.8057    0.0000 H       1  UNL1        0.0237
     54 H           8.6070    0.0412    0.0000 H       1  UNL1        0.0237
     55 H           7.7601    0.2682    0.0000 H       1  UNL1        0.0237
     56 H           4.6863    3.4290    0.0000 H       1  UNL1        0.0403
     57 H           4.0775    2.9006    0.0000 H       1  UNL1        0.0403
     58 H           2.2575    1.9321    0.0000 H       1  UNL1        0.0257
     59 H           1.4360    1.6256    0.0000 H       1  UNL1        0.0257
     60 H           1.7425    0.8041    0.0000 H       1  UNL1        0.0257
     61 H           1.7767    0.6352    0.0000 H       1  UNL1        0.0257
     62 H           1.8144   -0.2408    0.0000 H       1  UNL1        0.0257
     63 H           2.6904   -0.2032    0.0000 H       1  UNL1        0.0257
     64 H           9.2381   -1.7043    0.0000 H       1  UNL1        0.1109
     65 H           8.6017    0.6395    0.0000 H       1  UNL1        0.0692
     66 H          10.7035   -2.3222    0.0000 H       1  UNL1        0.2139
@<TRIPOS>BOND
     1    11     1    1
     2     1    16    1
     3     2    20    1
     4     2    24    1
     5     3    23    1
     6     3    28    1
     7     4    26    1
     8     4    33    1
     9     5    21    2
    10     6    28    2
    11     7    34    1
    12     7    36    1
    13     8    33    2
    14     9    34    1
    15     9    66    1
    16    10    36    2
    17    11    12    1
    18    11    15    1
    19    11    16    1
    20    12    13    1
    21    12    21    1
    22    12    25    1
    23    13    14    1
    24    13    18    1
    25    13    37    1
    26    14    17    1
    27    14    20    1
    28    14    26    1
    29    15    19    1
    30    15    23    1
    31    15    27    1
    32    16    28    1
    33    16    38    1
    34    17    22    1
    35    17    24    1
    36    17    39    1
    37    18    19    1
    38    18    40    1
    39    18    41    1
    40    19    42    1
    41    19    43    1
    42    20    29    1
    43    20    44    1
    44    21    22    1
    45    22    45    1
    46    22    46    1
    47    23    30    1
    48    23    47    1
    49    24    31    1
    50    24    32    1
    51    25    48    1
    52    25    49    1
    53    25    50    1
    54    26    51    1
    55    26    52    1
    56    27    53    1
    57    27    54    1
    58    27    55    1
    59    29    33    1
    60    29    56    1
    61    29    57    1
    62    30    34    1
    63    30    35    2
    64    31    58    1
    65    31    59    1
    66    31    60    1
    67    32    61    1
    68    32    62    1
    69    32    63    1
    70    34    64    1
    71    35    36    1
    72    35    65    1
