@<TRIPOS>MOLECULE
IMPHY002276
 49 55 0 0 0
SMALL
GASTEIGER

@<TRIPOS>ATOM
      1 O           4.0197    2.5357    0.0000 O.3     1  UNL1       -0.3741
      2 O           4.0076   -2.5336    0.0000 O.3     1  UNL1       -0.3917
      3 O           7.2265    2.3992    0.0000 O.2     1  UNL1       -0.2970
      4 N           3.0367    1.6816    0.0000 N.3     1  UNL1       -0.2701
      5 C           4.8858    0.0357    0.0000 C.3     1  UNL1        0.0005
      6 C           5.7518    1.5357    0.0000 C.3     1  UNL1       -0.0068
      7 C           4.0197    0.5357    0.0000 C.3     1  UNL1        0.0158
      8 C           5.7518    0.5357    0.0000 C.3     1  UNL1       -0.0198
      9 C           5.8736   -0.1113    0.0000 C.3     1  UNL1        0.0294
     10 C           4.0197    1.5357    0.0000 C.3     1  UNL1        0.1247
     11 C           6.3730    0.7536    0.0000 C.3     1  UNL1        0.0400
     12 C           3.1097    0.0288    0.0000 C.3     1  UNL1       -0.0096
     13 C           4.8858    2.0357    0.0000 C.3     1  UNL1       -0.0028
     14 C           6.6980    0.2309    0.0000 C.3     1  UNL1       -0.0095
     15 C           4.9018   -1.0058    0.0000 C.3     1  UNL1       -0.0190
     16 C           2.5229    0.8309    0.0000 C.3     1  UNL1        0.0076
     17 C           6.6980    1.8404    0.0000 C.3     1  UNL1       -0.0249
     18 C           3.1017   -1.0128    0.0000 C.3     1  UNL1       -0.0198
     19 C           7.0898    1.4086    0.0000 C.2     1  UNL1        0.1390
     20 C           7.2816    1.0357    0.0000 C.2     1  UNL1       -0.0723
     21 C           4.0038   -1.5336    0.0000 C.3     1  UNL1        0.0564
     22 C           7.6025    0.5840    0.0000 C.3     1  UNL1        0.0130
     23 C           2.2361   -0.4578    0.0000 C.3     1  UNL1       -0.0579
     24 C           8.2816    1.0357    0.0000 C.2     1  UNL1       -0.0991
     25 H           3.2836    0.9607    0.0000 H       1  UNL1        0.0354
     26 H           5.2053   -0.1154    0.0000 H       1  UNL1        0.0318
     27 H           6.2432   -0.8768    0.0000 H       1  UNL1        0.0476
     28 H           7.2058    0.5836    0.0000 H       1  UNL1        0.0398
     29 H           4.4872    2.5106    0.0000 H       1  UNL1        0.0312
     30 H           5.2843    2.5106    0.0000 H       1  UNL1        0.0312
     31 H           6.9620   -0.5770    0.0000 H       1  UNL1        0.0353
     32 H           5.5110   -0.8903    0.0000 H       1  UNL1        0.0296
     33 H           5.1198   -1.5862    0.0000 H       1  UNL1        0.0296
     34 H           2.0750    0.4022    0.0000 H       1  UNL1        0.0433
     35 H           2.0390    1.2185    0.0000 H       1  UNL1        0.0433
     36 H           6.4470    2.4073    0.0000 H       1  UNL1        0.0316
     37 H           7.2354    2.1496    0.0000 H       1  UNL1        0.0316
     38 H           2.8881   -1.5949    0.0000 H       1  UNL1        0.0296
     39 H           2.4917   -0.9020    0.0000 H       1  UNL1        0.0296
     40 H           3.4674   -1.8446    0.0000 H       1  UNL1        0.0593
     41 H           8.1482    0.8785    0.0000 H       1  UNL1        0.0348
     42 H           7.8630    0.0214    0.0000 H       1  UNL1        0.0348
     43 H           2.5378   -0.9994    0.0000 H       1  UNL1        0.0236
     44 H           1.6944   -0.7595    0.0000 H       1  UNL1        0.0236
     45 H           1.9344    0.0839    0.0000 H       1  UNL1        0.0236
     46 H           3.4828    2.8457    0.0000 H       1  UNL1        0.2117
     47 H           8.5916    1.5726    0.0000 H       1  UNL1        0.0534
     48 H           8.5916    0.4987    0.0000 H       1  UNL1        0.0534
     49 H           3.4719   -2.8457    0.0000 H       1  UNL1        0.2098
@<TRIPOS>BOND
     1    10     1    1
     2     1    46    1
     3    21     2    1
     4     2    49    1
     5     3    19    2
     6     4     9    1
     7     4    10    1
     8     4    16    1
     9     5     7    1
    10     5     8    1
    11     5     9    1
    12     5    15    1
    13     6     8    1
    14     6    11    1
    15     6    13    1
    16     6    17    1
    17     7    10    1
    18     7    12    1
    19     7    25    1
    20     8    14    1
    21     8    26    1
    22     9    11    1
    23     9    27    1
    24    10    13    1
    25    11    19    1
    26    11    28    1
    27    12    16    1
    28    12    18    1
    29    12    23    1
    30    13    29    1
    31    13    30    1
    32    14    20    1
    33    14    22    1
    34    14    31    1
    35    15    21    1
    36    15    32    1
    37    15    33    1
    38    16    34    1
    39    16    35    1
    40    17    20    1
    41    17    36    1
    42    17    37    1
    43    18    21    1
    44    18    38    1
    45    18    39    1
    46    19    22    1
    47    20    24    2
    48    21    40    1
    49    22    41    1
    50    22    42    1
    51    23    43    1
    52    23    44    1
    53    23    45    1
    54    24    47    1
    55    24    48    1
