@<TRIPOS>MOLECULE
IMPHY015224
 34 34 0 0 0
SMALL
GASTEIGER

@<TRIPOS>ATOM
      1 O           3.7320    3.2500    0.0000 O.3     1  UNL1       -0.4675
      2 O           4.5981    1.7500    0.0000 O.2     1  UNL1       -0.2502
      3 C           2.8660    1.7500    0.0000 C.3     1  UNL1        0.0786
      4 C           2.8660    0.7500    0.0000 C.ar    1  UNL1       -0.0339
      5 C           2.8660   -2.2500    0.0000 C.3     1  UNL1       -0.0009
      6 C           2.8660   -1.2500    0.0000 C.ar    1  UNL1       -0.0408
      7 C           2.0000    0.2500    0.0000 C.ar    1  UNL1       -0.0575
      8 C           3.7320    0.2500    0.0000 C.ar    1  UNL1       -0.0575
      9 C           2.0000   -0.7500    0.0000 C.ar    1  UNL1       -0.0577
     10 C           3.7320   -0.7500    0.0000 C.ar    1  UNL1       -0.0577
     11 C           2.0000    2.2500    0.0000 C.3     1  UNL1       -0.0482
     12 C           3.7320   -2.7500    0.0000 C.3     1  UNL1       -0.0549
     13 C           3.7320    2.2500    0.0000 C.2     1  UNL1        0.3140
     14 C           2.0000   -2.7500    0.0000 C.2     1  UNL1       -0.0840
     15 C           2.0000   -3.7500    0.0000 C.2     1  UNL1       -0.1021
     16 C           4.5981    3.7500    0.0000 C.3     1  UNL1        0.0817
     17 H           2.8660    2.3700    0.0000 H       1  UNL1        0.0459
     18 H           2.8660   -2.8700    0.0000 H       1  UNL1        0.0388
     19 H           1.4631    0.5600    0.0000 H       1  UNL1        0.0621
     20 H           4.2690    0.5600    0.0000 H       1  UNL1        0.0621
     21 H           1.4631   -1.0600    0.0000 H       1  UNL1        0.0621
     22 H           4.2690   -1.0600    0.0000 H       1  UNL1        0.0621
     23 H           2.3100    2.7869    0.0000 H       1  UNL1        0.0241
     24 H           1.4631    2.5600    0.0000 H       1  UNL1        0.0241
     25 H           1.6900    1.7131    0.0000 H       1  UNL1        0.0241
     26 H           3.4220   -3.2869    0.0000 H       1  UNL1        0.0239
     27 H           4.2690   -3.0600    0.0000 H       1  UNL1        0.0239
     28 H           4.0420   -2.2131    0.0000 H       1  UNL1        0.0239
     29 H           1.4631   -2.4400    0.0000 H       1  UNL1        0.0572
     30 H           1.4631   -4.0600    0.0000 H       1  UNL1        0.0532
     31 H           2.5369   -4.0600    0.0000 H       1  UNL1        0.0532
     32 H           4.9081    3.2131    0.0000 H       1  UNL1        0.0661
     33 H           5.1350    4.0600    0.0000 H       1  UNL1        0.0661
     34 H           4.2881    4.2869    0.0000 H       1  UNL1        0.0661
@<TRIPOS>BOND
     1     1    13    1
     2     1    16    1
     3     2    13    2
     4     3     4    1
     5     3    11    1
     6     3    13    1
     7     3    17    1
     8     4     7   ar
     9     4     8   ar
    10     5     6    1
    11     5    12    1
    12     5    14    1
    13     5    18    1
    14     6     9   ar
    15     6    10   ar
    16     7     9   ar
    17     7    19    1
    18     8    10   ar
    19     8    20    1
    20     9    21    1
    21    10    22    1
    22    11    23    1
    23    11    24    1
    24    11    25    1
    25    12    26    1
    26    12    27    1
    27    12    28    1
    28    14    15    2
    29    14    29    1
    30    15    30    1
    31    15    31    1
    32    16    32    1
    33    16    33    1
    34    16    34    1
