@<TRIPOS>MOLECULE
IMPHY006318
 46 51 0 0 0
SMALL
GASTEIGER

@<TRIPOS>ATOM
      1 O           6.2268   -0.6042    0.0000 O.3     1  UNL1       -0.3374
      2 O           7.0043   -2.1945    0.0000 O.3     1  UNL1       -0.3632
      3 O           9.0607   -2.4322    0.0000 O.3     1  UNL1       -0.4521
      4 O          10.6340   -1.6745    0.0000 O.3     1  UNL1       -0.4526
      5 O           2.7792   -0.0825    0.0000 O.3     1  UNL1       -0.4526
      6 O           2.4061    1.5519    0.0000 O.3     1  UNL1       -0.4526
      7 N           7.4442    1.8420    0.0000 N.3     1  UNL1       -0.2956
      8 C           7.2216    0.8671    0.0000 C.3     1  UNL1        0.0665
      9 C           6.3207    0.4332    0.0000 C.3     1  UNL1        0.1069
     10 C           8.0912    0.2936    0.0000 C.ar    1  UNL1       -0.0158
     11 C           5.4197    0.8671    0.0000 C.ar    1  UNL1       -0.0101
     12 C           6.8207    2.6238    0.0000 C.3     1  UNL1        0.0033
     13 C           8.0214   -0.7456    0.0000 C.ar    1  UNL1        0.0578
     14 C           5.8207    2.6238    0.0000 C.3     1  UNL1       -0.0144
     15 C           5.1972    1.8420    0.0000 C.ar    1  UNL1       -0.0368
     16 C           7.0829   -1.1976    0.0000 C.3     1  UNL1        0.1873
     17 C           8.4191    2.0645    0.0000 C.3     1  UNL1       -0.0121
     18 C           9.0576    0.7869    0.0000 C.ar    1  UNL1       -0.0529
     19 C           8.9131   -1.3637    0.0000 C.ar    1  UNL1        0.1745
     20 C           4.6672    0.1469    0.0000 C.ar    1  UNL1       -0.0102
     21 C           4.2067    2.1643    0.0000 C.ar    1  UNL1       -0.0126
     22 C           9.8907   -0.8930    0.0000 C.ar    1  UNL1        0.1667
     23 C           3.6695    0.4462    0.0000 C.ar    1  UNL1        0.1666
     24 C           3.4377    1.4618    0.0000 C.ar    1  UNL1        0.1665
     25 C           9.9634    0.1896    0.0000 C.ar    1  UNL1       -0.0158
     26 C          10.1221   -2.6238    0.0000 C.3     1  UNL1        0.2332
     27 C           2.0000    0.5994    0.0000 C.3     1  UNL1        0.2332
     28 H           7.7970    1.0980    0.0000 H       1  UNL1        0.0541
     29 H           5.7814    0.1273    0.0000 H       1  UNL1        0.0667
     30 H           7.3793    2.8928    0.0000 H       1  UNL1        0.0430
     31 H           6.6827    3.2283    0.0000 H       1  UNL1        0.0430
     32 H           5.9586    3.2283    0.0000 H       1  UNL1        0.0326
     33 H           5.2621    2.8928    0.0000 H       1  UNL1        0.0326
     34 H           6.5228   -1.4634    0.0000 H       1  UNL1        0.0964
     35 H           8.5570    1.4601    0.0000 H       1  UNL1        0.0391
     36 H           9.0236    2.2025    0.0000 H       1  UNL1        0.0391
     37 H           8.2811    2.6690    0.0000 H       1  UNL1        0.0391
     38 H           9.0920    1.4059    0.0000 H       1  UNL1        0.0622
     39 H           4.8121   -0.4559    0.0000 H       1  UNL1        0.0659
     40 H           4.0757    2.7704    0.0000 H       1  UNL1        0.0658
     41 H          10.5189    0.4650    0.0000 H       1  UNL1        0.0655
     42 H           6.4447   -2.4614    0.0000 H       1  UNL1        0.2128
     43 H           9.9484   -3.2190    0.0000 H       1  UNL1        0.1166
     44 H          10.6957   -2.8591    0.0000 H       1  UNL1        0.1166
     45 H           1.4584    0.9012    0.0000 H       1  UNL1        0.1166
     46 H           1.6430    0.0925    0.0000 H       1  UNL1        0.1166
@<TRIPOS>BOND
     1     1     9    1
     2     1    16    1
     3     2    16    1
     4     2    42    1
     5     3    19    1
     6     3    26    1
     7     4    22    1
     8     4    26    1
     9     5    23    1
    10     5    27    1
    11     6    24    1
    12     6    27    1
    13     7     8    1
    14     7    12    1
    15     7    17    1
    16     8     9    1
    17     8    10    1
    18     8    28    1
    19     9    11    1
    20     9    29    1
    21    10    13   ar
    22    10    18   ar
    23    11    15   ar
    24    11    20   ar
    25    12    14    1
    26    12    30    1
    27    12    31    1
    28    13    16    1
    29    13    19   ar
    30    14    15    1
    31    14    32    1
    32    14    33    1
    33    15    21   ar
    34    16    34    1
    35    17    35    1
    36    17    36    1
    37    17    37    1
    38    18    25   ar
    39    18    38    1
    40    19    22   ar
    41    20    23   ar
    42    20    39    1
    43    21    24   ar
    44    21    40    1
    45    22    25   ar
    46    23    24   ar
    47    25    41    1
    48    26    43    1
    49    26    44    1
    50    27    45    1
    51    27    46    1
