@<TRIPOS>MOLECULE
IMPHY004449
 51 53 0 0 0
SMALL
GASTEIGER

@<TRIPOS>ATOM
      1 O           5.1350   -0.5000    0.0000 O.3     1  UNL1       -0.3313
      2 O           6.8671   -0.5000    0.0000 O.3     1  UNL1       -0.4566
      3 O           5.1350   -3.5000    0.0000 O.3     1  UNL1       -0.3864
      4 O           3.4030   -2.5000    0.0000 O.3     1  UNL1       -0.3865
      5 O           6.8671   -2.5000    0.0000 O.3     1  UNL1       -0.3829
      6 O           2.5369   -1.0000    0.0000 O.3     1  UNL1       -0.3924
      7 O           5.1350    0.5000    0.0000 O.3     1  UNL1       -0.5032
      8 O           6.8671    3.5000    0.0000 O.3     1  UNL1       -0.5066
      9 O          12.9292   -1.0000    0.0000 O.3     1  UNL1       -0.5068
     10 C           5.1350   -2.5000    0.0000 C.3     1  UNL1        0.1152
     11 C           4.2690   -2.0000    0.0000 C.3     1  UNL1        0.1120
     12 C           6.0010   -2.0000    0.0000 C.3     1  UNL1        0.1454
     13 C           4.2690   -1.0000    0.0000 C.3     1  UNL1        0.1140
     14 C           6.0010   -1.0000    0.0000 C.3     1  UNL1        0.2310
     15 C           3.4030   -0.5000    0.0000 C.3     1  UNL1        0.0731
     16 C           6.8671    0.5000    0.0000 C.ar    1  UNL1        0.1725
     17 C           7.7331    1.0000    0.0000 C.ar    1  UNL1        0.0239
     18 C           6.0010    1.0000    0.0000 C.ar    1  UNL1        0.1627
     19 C           7.7331    2.0000    0.0000 C.ar    1  UNL1       -0.0093
     20 C           6.0010    2.0000    0.0000 C.ar    1  UNL1        0.0250
     21 C           8.5991    0.5000    0.0000 C.2     1  UNL1       -0.0503
     22 C           6.8671    2.5000    0.0000 C.ar    1  UNL1        0.1211
     23 C           9.4651    1.0000    0.0000 C.2     1  UNL1       -0.0539
     24 C          10.3312    0.5000    0.0000 C.ar    1  UNL1       -0.0248
     25 C          11.1972    1.0000    0.0000 C.ar    1  UNL1       -0.0511
     26 C          10.3312   -0.5000    0.0000 C.ar    1  UNL1       -0.0511
     27 C          12.0632    0.5000    0.0000 C.ar    1  UNL1       -0.0196
     28 C          11.1972   -1.0000    0.0000 C.ar    1  UNL1       -0.0196
     29 C          12.0632   -0.5000    0.0000 C.ar    1  UNL1        0.1169
     30 H           4.5981   -2.8100    0.0000 H       1  UNL1        0.0648
     31 H           4.2690   -2.6200    0.0000 H       1  UNL1        0.0647
     32 H           6.0010   -2.6200    0.0000 H       1  UNL1        0.0683
     33 H           4.2690   -0.3800    0.0000 H       1  UNL1        0.0647
     34 H           6.0010   -0.3800    0.0000 H       1  UNL1        0.1084
     35 H           3.8015   -0.0251    0.0000 H       1  UNL1        0.0584
     36 H           3.0044   -0.0251    0.0000 H       1  UNL1        0.0584
     37 H           4.5981   -3.8100    0.0000 H       1  UNL1        0.2100
     38 H           3.4030   -3.1200    0.0000 H       1  UNL1        0.2100
     39 H           6.8671   -3.1200    0.0000 H       1  UNL1        0.2102
     40 H           2.0000   -0.6900    0.0000 H       1  UNL1        0.2095
     41 H           8.2700    2.3100    0.0000 H       1  UNL1        0.0661
     42 H           5.4641    2.3100    0.0000 H       1  UNL1        0.0692
     43 H           8.5991   -0.1200    0.0000 H       1  UNL1        0.0625
     44 H           9.4651    1.6200    0.0000 H       1  UNL1        0.0624
     45 H           4.5981    0.8100    0.0000 H       1  UNL1        0.2923
     46 H           7.4040    3.8100    0.0000 H       1  UNL1        0.2921
     47 H          11.1972    1.6200    0.0000 H       1  UNL1        0.0625
     48 H           9.7942   -0.8100    0.0000 H       1  UNL1        0.0625
     49 H          12.6002    0.8100    0.0000 H       1  UNL1        0.0654
     50 H          11.1972   -1.6200    0.0000 H       1  UNL1        0.0654
     51 H          13.4662   -0.6900    0.0000 H       1  UNL1        0.2921
@<TRIPOS>BOND
     1     1    13    1
     2     1    14    1
     3    14     2    1
     4     2    16    1
     5    10     3    1
     6     3    37    1
     7    11     4    1
     8     4    38    1
     9    12     5    1
    10     5    39    1
    11     6    15    1
    12     6    40    1
    13     7    18    1
    14     7    45    1
    15     8    22    1
    16     8    46    1
    17     9    29    1
    18     9    51    1
    19    10    11    1
    20    10    12    1
    21    10    30    1
    22    11    13    1
    23    11    31    1
    24    12    14    1
    25    12    32    1
    26    13    15    1
    27    13    33    1
    28    14    34    1
    29    15    35    1
    30    15    36    1
    31    16    17   ar
    32    16    18   ar
    33    17    19   ar
    34    17    21    1
    35    18    20   ar
    36    19    22   ar
    37    19    41    1
    38    20    22   ar
    39    20    42    1
    40    21    23    2
    41    21    43    1
    42    23    24    1
    43    23    44    1
    44    24    25   ar
    45    24    26   ar
    46    25    27   ar
    47    25    47    1
    48    26    28   ar
    49    26    48    1
    50    27    29   ar
    51    27    49    1
    52    28    29   ar
    53    28    50    1
