@<TRIPOS>MOLECULE
IMPHY015020
 69 73 0 0 0
SMALL
GASTEIGER

@<TRIPOS>ATOM
      1 O           5.1350    1.2500    0.0000 O.3     1  UNL1       -0.3609
      2 O           6.8671   -1.7500    0.0000 O.3     1  UNL1       -0.3664
      3 O           6.8671    3.2500    0.0000 O.3     1  UNL1       -0.3862
      4 O           5.1350    4.2500    0.0000 O.3     1  UNL1       -0.3865
      5 O           3.4030    3.2500    0.0000 O.3     1  UNL1       -0.3865
      6 O           9.4651   -1.2500    0.0000 O.3     1  UNL1       -0.3862
      7 O           9.4651   -3.2500    0.0000 O.3     1  UNL1       -0.3865
      8 O           9.4931   -0.2847    0.0000 O.2     1  UNL1       -0.4540
      9 O           6.0010   -0.2500    0.0000 O.3     1  UNL1       -0.5058
     10 O           7.7331   -4.2500    0.0000 O.3     1  UNL1       -0.3869
     11 O           7.7331    2.7500    0.0000 O.3     1  UNL1       -0.5054
     12 O           2.5369    1.7500    0.0000 O.3     1  UNL1       -0.3924
     13 O           9.4815    2.7846    0.0000 O.2     1  UNL1       -0.2869
     14 O          12.1196   -2.7775    0.0000 O.3     1  UNL1       -0.5033
     15 O          13.8555   -1.7842    0.0000 O.3     1  UNL1       -0.5033
     16 C           6.0010    1.7500    0.0000 C.3     1  UNL1        0.1193
     17 C           6.0010    2.7500    0.0000 C.3     1  UNL1        0.1139
     18 C           5.1350    3.2500    0.0000 C.3     1  UNL1        0.1121
     19 C           4.2690    2.7500    0.0000 C.3     1  UNL1        0.1117
     20 C           4.2690    1.7500    0.0000 C.3     1  UNL1        0.1108
     21 C           7.7331   -1.2500    0.0000 C.3     1  UNL1        0.1189
     22 C           6.8671    1.2500    0.0000 C.ar    1  UNL1        0.0677
     23 C           8.5991   -1.7500    0.0000 C.3     1  UNL1        0.1139
     24 C           7.7331   -0.2500    0.0000 C.ar    1  UNL1        0.0685
     25 C           8.5991   -2.7500    0.0000 C.3     1  UNL1        0.1117
     26 C           6.8671    0.2500    0.0000 C.ar    1  UNL1        0.1353
     27 C           7.7331   -3.2500    0.0000 C.3     1  UNL1        0.1068
     28 C           7.7331    1.7500    0.0000 C.ar    1  UNL1        0.1404
     29 C           8.5991    0.2500    0.0000 C.ar    1  UNL1        0.1520
     30 C           6.8671   -2.7500    0.0000 C.3     1  UNL1        0.0770
     31 C           3.4030    1.2500    0.0000 C.3     1  UNL1        0.0729
     32 C           8.5991    1.2500    0.0000 C.ar    1  UNL1        0.1062
     33 C           9.4931    1.7847    0.0000 C.ar    1  UNL1        0.1966
     34 C          10.3991    0.2292    0.0000 C.ar    1  UNL1        0.1394
     35 C          10.3991    1.2708    0.0000 C.ar    1  UNL1        0.0288
     36 C          11.2632   -0.2742    0.0000 C.ar    1  UNL1        0.0211
     37 C          11.2594   -1.2741    0.0000 C.ar    1  UNL1       -0.0059
     38 C          12.1312    0.2225    0.0000 C.ar    1  UNL1       -0.0474
     39 C          12.1235   -1.7775    0.0000 C.ar    1  UNL1        0.1589
     40 C          12.9953   -0.2808    0.0000 C.ar    1  UNL1       -0.0159
     41 C          12.9914   -1.2808    0.0000 C.ar    1  UNL1        0.1583
     42 H           6.0010    0.9000    0.0000 H       1  UNL1        0.0676
     43 H           6.5380    2.4400    0.0000 H       1  UNL1        0.0649
     44 H           5.6720    3.5600    0.0000 H       1  UNL1        0.0647
     45 H           4.2690    3.3700    0.0000 H       1  UNL1        0.0647
     46 H           4.2690    1.1300    0.0000 H       1  UNL1        0.0646
     47 H           6.9970   -0.8250    0.0000 H       1  UNL1        0.0675
     48 H           8.5991   -1.1300    0.0000 H       1  UNL1        0.0649
     49 H           8.5991   -3.3700    0.0000 H       1  UNL1        0.0647
     50 H           7.1962   -3.5600    0.0000 H       1  UNL1        0.0643
     51 H           6.2565   -2.6423    0.0000 H       1  UNL1        0.0587
     52 H           6.6550   -3.3326    0.0000 H       1  UNL1        0.0587
     53 H           3.0044    0.7751    0.0000 H       1  UNL1        0.0584
     54 H           3.8015    0.7751    0.0000 H       1  UNL1        0.0584
     55 H           6.8671    3.8700    0.0000 H       1  UNL1        0.2100
     56 H           4.5981    4.5600    0.0000 H       1  UNL1        0.2100
     57 H           3.4030    3.8700    0.0000 H       1  UNL1        0.2100
     58 H          10.0021   -1.5600    0.0000 H       1  UNL1        0.2100
     59 H           9.4651   -3.8700    0.0000 H       1  UNL1        0.2100
     60 H           5.4641    0.0600    0.0000 H       1  UNL1        0.2922
     61 H           7.1962   -4.5600    0.0000 H       1  UNL1        0.2100
     62 H           8.2700    3.0600    0.0000 H       1  UNL1        0.2922
     63 H          10.9349    1.5829    0.0000 H       1  UNL1        0.0693
     64 H           2.0000    1.4400    0.0000 H       1  UNL1        0.2095
     65 H          10.7212   -1.5821    0.0000 H       1  UNL1        0.0662
     66 H          12.1336    0.8425    0.0000 H       1  UNL1        0.0626
     67 H          13.5334    0.0271    0.0000 H       1  UNL1        0.0655
     68 H          12.6553   -3.0895    0.0000 H       1  UNL1        0.2923
     69 H          14.3936   -1.4762    0.0000 H       1  UNL1        0.2923
@<TRIPOS>BOND
     1     1    16    1
     2     1    20    1
     3     2    21    1
     4     2    30    1
     5    17     3    1
     6     3    55    1
     7    18     4    1
     8     4    56    1
     9    19     5    1
    10     5    57    1
    11    23     6    1
    12     6    58    1
    13    25     7    1
    14     7    59    1
    15     8    29   ar
    16     8    34   ar
    17     9    26    1
    18     9    60    1
    19    27    10    1
    20    10    61    1
    21    11    28    1
    22    11    62    1
    23    12    31    1
    24    12    64    1
    25    13    33    2
    26    14    39    1
    27    14    68    1
    28    15    41    1
    29    15    69    1
    30    16    17    1
    31    16    22    1
    32    16    42    1
    33    17    18    1
    34    17    43    1
    35    18    19    1
    36    18    44    1
    37    19    20    1
    38    19    45    1
    39    20    31    1
    40    20    46    1
    41    21    23    1
    42    21    24    1
    43    21    47    1
    44    22    26   ar
    45    22    28   ar
    46    23    25    1
    47    23    48    1
    48    24    26   ar
    49    24    29   ar
    50    25    27    1
    51    25    49    1
    52    27    30    1
    53    27    50    1
    54    28    32   ar
    55    29    32   ar
    56    30    51    1
    57    30    52    1
    58    31    53    1
    59    31    54    1
    60    32    33   ar
    61    33    35   ar
    62    34    35   ar
    63    34    36    1
    64    35    63    1
    65    36    37   ar
    66    36    38   ar
    67    37    39   ar
    68    37    65    1
    69    38    40   ar
    70    38    66    1
    71    39    41   ar
    72    40    41   ar
    73    40    67    1
