@<TRIPOS>MOLECULE
IMPHY013043
 47 51 0 0 0
SMALL
GASTEIGER

@<TRIPOS>ATOM
      1 O           8.8705   -1.2495    0.0000 O.3     1  UNL1       -0.4526
      2 O           8.8705   -2.8590    0.0000 O.3     1  UNL1       -0.4526
      3 O           5.3329    1.9802    0.0000 O.3     1  UNL1       -0.4910
      4 O           3.4030    2.9744    0.0000 O.3     1  UNL1       -0.4489
      5 O           2.0000    2.1859    0.0000 O.3     1  UNL1       -0.4525
      6 N           4.3922   -1.5334    0.0000 N.3     1  UNL1       -0.2978
      7 C           5.2982   -1.0196    0.0000 C.3     1  UNL1        0.0398
      8 C           6.1922   -1.5542    0.0000 C.ar    1  UNL1       -0.0231
      9 C           4.3922   -2.5750    0.0000 C.3     1  UNL1        0.0032
     10 C           5.2982   -3.0889    0.0000 C.3     1  UNL1       -0.0144
     11 C           6.1922   -2.5542    0.0000 C.ar    1  UNL1       -0.0378
     12 C           5.3098   -0.0196    0.0000 C.3     1  UNL1       -0.0043
     13 C           7.0582   -1.0542    0.0000 C.ar    1  UNL1       -0.0112
     14 C           4.4496    0.4903    0.0000 C.ar    1  UNL1       -0.0000
     15 C           3.5281   -1.0301    0.0000 C.3     1  UNL1       -0.0122
     16 C           7.0582   -3.0542    0.0000 C.ar    1  UNL1       -0.0126
     17 C           7.9242   -1.5542    0.0000 C.ar    1  UNL1        0.1666
     18 C           7.9242   -2.5542    0.0000 C.ar    1  UNL1        0.1665
     19 C           4.4612    1.4903    0.0000 C.ar    1  UNL1        0.1685
     20 C           3.5779    0.0004    0.0000 C.ar    1  UNL1       -0.0514
     21 C           3.6010    2.0002    0.0000 C.ar    1  UNL1        0.2078
     22 C           9.4541   -2.0542    0.0000 C.3     1  UNL1        0.2332
     23 C           2.7292    1.5103    0.0000 C.ar    1  UNL1        0.1699
     24 C           2.7177    0.5104    0.0000 C.ar    1  UNL1       -0.0156
     25 C           2.4156    3.0889    0.0000 C.3     1  UNL1        0.2334
     26 C           5.3445    2.9802    0.0000 C.3     1  UNL1        0.0790
     27 H           4.7643   -0.7044    0.0000 H       1  UNL1        0.0515
     28 H           3.7813   -2.4690    0.0000 H       1  UNL1        0.0430
     29 H           4.1831   -3.1588    0.0000 H       1  UNL1        0.0430
     30 H           5.9191   -0.1344    0.0000 H       1  UNL1        0.0333
     31 H           5.5286    0.5605    0.0000 H       1  UNL1        0.0333
     32 H           4.9046   -3.5679    0.0000 H       1  UNL1        0.0326
     33 H           5.7028   -3.5587    0.0000 H       1  UNL1        0.0326
     34 H           7.0582   -0.4342    0.0000 H       1  UNL1        0.0659
     35 H           3.8402   -0.4944    0.0000 H       1  UNL1        0.0391
     36 H           2.9924   -0.7180    0.0000 H       1  UNL1        0.0391
     37 H           3.2160   -1.5658    0.0000 H       1  UNL1        0.0391
     38 H           7.0582   -3.6742    0.0000 H       1  UNL1        0.0658
     39 H           3.5707   -0.6196    0.0000 H       1  UNL1        0.0623
     40 H           9.9149   -2.4690    0.0000 H       1  UNL1        0.1166
     41 H           9.9149   -1.6395    0.0000 H       1  UNL1        0.1166
     42 H           2.1772    0.2066    0.0000 H       1  UNL1        0.0655
     43 H           2.5513    3.6939    0.0000 H       1  UNL1        0.1166
     44 H           1.8282    3.2875    0.0000 H       1  UNL1        0.1166
     45 H           5.9645    2.9730    0.0000 H       1  UNL1        0.0660
     46 H           5.3517    3.6001    0.0000 H       1  UNL1        0.0660
     47 H           4.7245    2.9873    0.0000 H       1  UNL1        0.0660
@<TRIPOS>BOND
     1     1    17    1
     2     1    22    1
     3     2    18    1
     4     2    22    1
     5     3    19    1
     6     3    26    1
     7     4    21    1
     8     4    25    1
     9     5    23    1
    10     5    25    1
    11     6     7    1
    12     6     9    1
    13     6    15    1
    14     7     8    1
    15     7    12    1
    16     7    27    1
    17     8    11   ar
    18     8    13   ar
    19     9    10    1
    20     9    28    1
    21     9    29    1
    22    10    11    1
    23    10    32    1
    24    10    33    1
    25    11    16   ar
    26    12    14    1
    27    12    30    1
    28    12    31    1
    29    13    17   ar
    30    13    34    1
    31    14    19   ar
    32    14    20   ar
    33    15    35    1
    34    15    36    1
    35    15    37    1
    36    16    18   ar
    37    16    38    1
    38    17    18   ar
    39    19    21   ar
    40    20    24   ar
    41    20    39    1
    42    21    23   ar
    43    22    40    1
    44    22    41    1
    45    23    24   ar
    46    24    42    1
    47    25    43    1
    48    25    44    1
    49    26    45    1
    50    26    46    1
    51    26    47    1
