@<TRIPOS>MOLECULE
IMPHY006606
 81 87 0 0 0
SMALL
GASTEIGER

@<TRIPOS>ATOM
      1 O           4.5981   -0.2846    0.0000 O.3     1  UNL1       -0.3414
      2 O           7.5280    0.7902    0.0000 O.3     1  UNL1       -0.4640
      3 O           5.4641    1.2154    0.0000 O.3     1  UNL1       -0.3415
      4 O           4.5820    3.7569    0.0000 O.3     1  UNL1       -0.3431
      5 O           2.8660    2.7154    0.0000 O.3     1  UNL1       -0.3874
      6 O           6.3821    3.7638    0.0000 O.3     1  UNL1       -0.3489
      7 O           8.9117   -0.3238    0.0000 O.2     1  UNL1       -0.2505
      8 O           3.7784   -4.0279    0.0000 O.3     1  UNL1       -0.4526
      9 O           5.2302   -4.8662    0.0000 O.3     1  UNL1       -0.4526
     10 O          10.6603   -1.7846    0.0000 O.3     1  UNL1       -0.4913
     11 O           8.9282   -4.7846    0.0000 O.3     1  UNL1       -0.4913
     12 O          10.6603   -3.7846    0.0000 O.3     1  UNL1       -0.5009
     13 N           2.8660    0.7154    0.0000 N.3     1  UNL1       -0.2988
     14 C           6.3301   -0.2846    0.0000 C.3     1  UNL1        0.0375
     15 C           7.1962   -0.7846    0.0000 C.3     1  UNL1        0.0758
     16 C           5.4641   -0.7846    0.0000 C.3     1  UNL1        0.0937
     17 C           7.1962   -1.7846    0.0000 C.3     1  UNL1        0.0233
     18 C           5.4641   -1.7846    0.0000 C.ar    1  UNL1       -0.0109
     19 C           6.5393    0.6872    0.0000 C.3     1  UNL1        0.0987
     20 C           6.3301   -2.2846    0.0000 C.ar    1  UNL1       -0.0298
     21 C           4.5981    0.7154    0.0000 C.3     1  UNL1        0.1783
     22 C           3.7320    1.2154    0.0000 C.3     1  UNL1        0.0898
     23 C           3.7320    2.2154    0.0000 C.3     1  UNL1        0.1041
     24 C           4.5981    2.7154    0.0000 C.3     1  UNL1        0.1173
     25 C           7.9332   -0.1175    0.0000 C.2     1  UNL1        0.3116
     26 C           5.4641    2.2154    0.0000 C.3     1  UNL1        0.1137
     27 C           8.0622   -2.2846    0.0000 C.ar    1  UNL1       -0.0320
     28 C           4.5541   -2.2915    0.0000 C.ar    1  UNL1       -0.0102
     29 C           6.3462   -3.3261    0.0000 C.ar    1  UNL1       -0.0120
     30 C           6.3741    2.7222    0.0000 C.3     1  UNL1        0.0794
     31 C           4.5461   -3.3331    0.0000 C.ar    1  UNL1        0.1666
     32 C           5.4482   -3.8539    0.0000 C.ar    1  UNL1        0.1665
     33 C           5.4800    4.2846    0.0000 C.3     1  UNL1        0.1570
     34 C           8.0622   -3.2846    0.0000 C.ar    1  UNL1       -0.0123
     35 C           8.9282   -1.7846    0.0000 C.ar    1  UNL1       -0.0123
     36 C           2.0000    1.2154    0.0000 C.3     1  UNL1       -0.0125
     37 C           2.8660   -0.2846    0.0000 C.3     1  UNL1       -0.0125
     38 C           9.7942   -2.2846    0.0000 C.ar    1  UNL1        0.1653
     39 C           8.9282   -3.7846    0.0000 C.ar    1  UNL1        0.1653
     40 C           5.4762    5.2846    0.0000 C.3     1  UNL1       -0.0136
     41 C           4.2004   -4.9735    0.0000 C.3     1  UNL1        0.2332
     42 C           9.7942   -3.2846    0.0000 C.ar    1  UNL1        0.2010
     43 C          11.5263   -2.2846    0.0000 C.3     1  UNL1        0.0790
     44 C           8.0622   -5.2846    0.0000 C.3     1  UNL1        0.0790
     45 H           5.6431    0.2159    0.0000 H       1  UNL1        0.0370
     46 H           7.9731   -1.1293    0.0000 H       1  UNL1        0.0427
     47 H           5.4641   -0.1646    0.0000 H       1  UNL1        0.0651
     48 H           7.1962   -2.4046    0.0000 H       1  UNL1        0.0405
     49 H           6.5402    1.3072    0.0000 H       1  UNL1        0.0701
     50 H           5.9229    0.7532    0.0000 H       1  UNL1        0.0701
     51 H           4.0611    0.4054    0.0000 H       1  UNL1        0.0927
     52 H           3.1951    1.5254    0.0000 H       1  UNL1        0.0539
     53 H           3.7320    2.8354    0.0000 H       1  UNL1        0.0637
     54 H           5.3309    3.1460    0.0000 H       1  UNL1        0.0650
     55 H           6.1969    1.7847    0.0000 H       1  UNL1        0.0647
     56 H           4.0208   -1.9753    0.0000 H       1  UNL1        0.0659
     57 H           6.8867   -3.6299    0.0000 H       1  UNL1        0.0658
     58 H           6.5786    2.1369    0.0000 H       1  UNL1        0.0587
     59 H           6.9858    2.8236    0.0000 H       1  UNL1        0.0587
     60 H           4.9413    4.5915    0.0000 H       1  UNL1        0.0907
     61 H           7.5252   -3.5946    0.0000 H       1  UNL1        0.0658
     62 H           8.9282   -1.1646    0.0000 H       1  UNL1        0.0658
     63 H           2.8660    3.3354    0.0000 H       1  UNL1        0.2100
     64 H           2.3100    1.7523    0.0000 H       1  UNL1        0.0391
     65 H           1.4631    1.5254    0.0000 H       1  UNL1        0.0391
     66 H           1.6900    0.6784    0.0000 H       1  UNL1        0.0391
     67 H           2.2460   -0.2846    0.0000 H       1  UNL1        0.0391
     68 H           2.8660   -0.9046    0.0000 H       1  UNL1        0.0391
     69 H           3.4860   -0.2846    0.0000 H       1  UNL1        0.0391
     70 H           6.0962    5.2870    0.0000 H       1  UNL1        0.0278
     71 H           5.4738    5.9046    0.0000 H       1  UNL1        0.0278
     72 H           4.8562    5.2822    0.0000 H       1  UNL1        0.0278
     73 H           3.6108   -5.1653    0.0000 H       1  UNL1        0.1166
     74 H           4.3291   -5.5800    0.0000 H       1  UNL1        0.1166
     75 H          10.6603   -4.4046    0.0000 H       1  UNL1        0.2924
     76 H          11.2163   -2.8216    0.0000 H       1  UNL1        0.0660
     77 H          12.0632   -2.5946    0.0000 H       1  UNL1        0.0660
     78 H          11.8363   -1.7477    0.0000 H       1  UNL1        0.0660
     79 H           7.7522   -4.7477    0.0000 H       1  UNL1        0.0660
     80 H           7.5252   -5.5946    0.0000 H       1  UNL1        0.0660
     81 H           8.3722   -5.8216    0.0000 H       1  UNL1        0.0660
@<TRIPOS>BOND
     1    16     1    1
     2    21     1    1
     3     2    19    1
     4     2    25    1
     5     3    21    1
     6     3    26    1
     7     4    24    1
     8     4    33    1
     9    23     5    1
    10     5    63    1
    11     6    30    1
    12     6    33    1
    13     7    25    2
    14     8    31    1
    15     8    41    1
    16     9    32    1
    17     9    41    1
    18    10    38    1
    19    10    43    1
    20    11    39    1
    21    11    44    1
    22    12    42    1
    23    12    75    1
    24    22    13    1
    25    13    36    1
    26    13    37    1
    27    14    15    1
    28    14    16    1
    29    14    19    1
    30    14    45    1
    31    15    17    1
    32    15    25    1
    33    15    46    1
    34    16    18    1
    35    16    47    1
    36    17    20    1
    37    17    27    1
    38    17    48    1
    39    18    20   ar
    40    18    28   ar
    41    19    49    1
    42    19    50    1
    43    20    29   ar
    44    21    22    1
    45    21    51    1
    46    22    23    1
    47    22    52    1
    48    23    24    1
    49    23    53    1
    50    24    26    1
    51    24    54    1
    52    26    30    1
    53    26    55    1
    54    27    34   ar
    55    27    35   ar
    56    28    31   ar
    57    28    56    1
    58    29    32   ar
    59    29    57    1
    60    30    58    1
    61    30    59    1
    62    31    32   ar
    63    33    40    1
    64    33    60    1
    65    34    39   ar
    66    34    61    1
    67    35    38   ar
    68    35    62    1
    69    36    64    1
    70    36    65    1
    71    36    66    1
    72    37    67    1
    73    37    68    1
    74    37    69    1
    75    38    42   ar
    76    39    42   ar
    77    40    70    1
    78    40    71    1
    79    40    72    1
    80    41    73    1
    81    41    74    1
    82    43    76    1
    83    43    77    1
    84    43    78    1
    85    44    79    1
    86    44    80    1
    87    44    81    1
