@<TRIPOS>MOLECULE
IMPHY003732
 51 52 0 0 0
SMALL
GASTEIGER

@<TRIPOS>ATOM
      1 O           3.6473   -0.2177    0.0000 O.3     1  UNL1       -0.4596
      2 O           7.1427   -0.0163    0.0000 O.3     1  UNL1       -0.4581
      3 O           8.6381    0.1619    0.0000 O.3     1  UNL1       -0.3752
      4 O           9.7211    2.2972    0.0000 O.3     1  UNL1       -0.3886
      5 O           6.7856    1.6785    0.0000 O.2     1  UNL1       -0.2475
      6 O           2.0000   -0.7529    0.0000 O.2     1  UNL1       -0.2512
      7 N           4.9074   -2.4778    0.0000 N.3     1  UNL1       -0.2886
      8 C           4.9074   -1.4778    0.0000 C.3     1  UNL1        0.0723
      9 C           3.9563   -1.1688    0.0000 C.3     1  UNL1        0.1235
     10 C           3.3685   -1.9778    0.0000 C.3     1  UNL1       -0.0010
     11 C           3.9563   -2.7868    0.0000 C.3     1  UNL1        0.0033
     12 C           5.8536   -1.1730    0.0000 C.2     1  UNL1       -0.0148
     13 C           5.8536   -2.7825    0.0000 C.3     1  UNL1        0.0182
     14 C           6.4372   -1.9778    0.0000 C.2     1  UNL1       -0.0660
     15 C           6.1642   -0.2225    0.0000 C.3     1  UNL1        0.1153
     16 C           8.4319    1.1404    0.0000 C.3     1  UNL1        0.1901
     17 C           8.2257    2.1189    0.0000 C.3     1  UNL1       -0.0048
     18 C           7.4534    0.9342    0.0000 C.2     1  UNL1        0.3423
     19 C           9.4104    1.3467    0.0000 C.3     1  UNL1        0.0918
     20 C           2.6691   -0.0098    0.0000 C.2     1  UNL1        0.3043
     21 C           8.9700    2.7868    0.0000 C.3     1  UNL1       -0.0594
     22 C           7.2752    2.4296    0.0000 C.3     1  UNL1       -0.0594
     23 C          10.0783    0.6024    0.0000 C.3     1  UNL1       -0.0357
     24 C           2.3601    0.9413    0.0000 C.3     1  UNL1        0.0332
     25 H           4.9084   -0.6278    0.0000 H       1  UNL1        0.0547
     26 H           4.3947   -0.7303    0.0000 H       1  UNL1        0.0753
     27 H           2.9078   -1.5629    0.0000 H       1  UNL1        0.0314
     28 H           2.9078   -2.3926    0.0000 H       1  UNL1        0.0314
     29 H           3.4194   -3.0968    0.0000 H       1  UNL1        0.0428
     30 H           4.2085   -3.3532    0.0000 H       1  UNL1        0.0428
     31 H           5.6025   -3.3494    0.0000 H       1  UNL1        0.0470
     32 H           6.3910   -3.0917    0.0000 H       1  UNL1        0.0470
     33 H           7.0572   -1.9778    0.0000 H       1  UNL1        0.0586
     34 H           6.1437    0.3971    0.0000 H       1  UNL1        0.0746
     35 H           5.5504   -0.1352    0.0000 H       1  UNL1        0.0746
     36 H           8.0978    2.7256    0.0000 H       1  UNL1        0.0329
     37 H           8.9964    1.8081    0.0000 H       1  UNL1        0.0625
     38 H           9.3840    2.3253    0.0000 H       1  UNL1        0.0233
     39 H           9.4315    3.2008    0.0000 H       1  UNL1        0.0233
     40 H           8.5559    3.2483    0.0000 H       1  UNL1        0.0233
     41 H           7.4678    3.0189    0.0000 H       1  UNL1        0.0233
     42 H           6.6858    2.6222    0.0000 H       1  UNL1        0.0233
     43 H           7.0826    1.8403    0.0000 H       1  UNL1        0.0233
     44 H           9.6168    0.1883    0.0000 H       1  UNL1        0.0255
     45 H          10.4923    0.1409    0.0000 H       1  UNL1        0.0255
     46 H          10.5397    1.0164    0.0000 H       1  UNL1        0.0255
     47 H           9.2274   -0.0307    0.0000 H       1  UNL1        0.2110
     48 H           2.9498    1.1329    0.0000 H       1  UNL1        0.0342
     49 H           2.1685    1.5309    0.0000 H       1  UNL1        0.0342
     50 H           1.7705    0.7497    0.0000 H       1  UNL1        0.0342
     51 H          10.3278    2.4250    0.0000 H       1  UNL1        0.2099
@<TRIPOS>BOND
     1     9     1    1
     2     1    20    1
     3     2    15    1
     4     2    18    1
     5    16     3    1
     6     3    47    1
     7    19     4    1
     8     4    51    1
     9     5    18    2
    10     6    20    2
    11     7     8    1
    12     7    11    1
    13     7    13    1
    14     8     9    1
    15     8    12    1
    16     8    25    1
    17     9    10    1
    18     9    26    1
    19    10    11    1
    20    10    27    1
    21    10    28    1
    22    11    29    1
    23    11    30    1
    24    12    14    2
    25    12    15    1
    26    13    14    1
    27    13    31    1
    28    13    32    1
    29    14    33    1
    30    15    34    1
    31    15    35    1
    32    16    17    1
    33    16    18    1
    34    16    19    1
    35    17    21    1
    36    17    22    1
    37    17    36    1
    38    19    23    1
    39    19    37    1
    40    20    24    1
    41    21    38    1
    42    21    39    1
    43    21    40    1
    44    22    41    1
    45    22    42    1
    46    22    43    1
    47    23    44    1
    48    23    45    1
    49    23    46    1
    50    24    48    1
    51    24    49    1
    52    24    50    1
