@<TRIPOS>MOLECULE
IMPHY012532
 158 166 0 0 0
SMALL
GASTEIGER

@<TRIPOS>ATOM
      1 O          10.8882    2.6557    0.0000 O.3     1  UNL1       -0.3450
      2 O           9.3592    3.8876    0.0000 O.3     1  UNL1       -0.3642
      3 O           9.4651   -5.5884    0.0000 O.3     1  UNL1       -0.3451
      4 O           7.7331   -5.5884    0.0000 O.3     1  UNL1       -0.3405
      5 O          13.5227    5.7550    0.0000 O.3     1  UNL1       -0.3484
      6 O           9.4651   -7.5884    0.0000 O.3     1  UNL1       -0.3378
      7 O           7.7331   -8.5884    0.0000 O.3     1  UNL1       -0.3864
      8 O           6.0010   -7.5884    0.0000 O.3     1  UNL1       -0.3401
      9 O          15.0202    6.6255    0.0000 O.3     1  UNL1       -0.3405
     10 O          10.3312   -6.0884    0.0000 O.3     1  UNL1       -0.3431
     11 O           6.0010   -4.5884    0.0000 O.3     1  UNL1       -0.3924
     12 O          14.5279    4.0260    0.0000 O.3     1  UNL1       -0.3841
     13 O           5.1350   -6.0884    0.0000 O.3     1  UNL1       -0.3405
     14 O          11.1972   -8.5884    0.0000 O.3     1  UNL1       -0.3841
     15 O          16.5279    4.0319    0.0000 O.3     1  UNL1       -0.3864
     16 O          17.5227    5.7670    0.0000 O.3     1  UNL1       -0.3865
     17 O          12.9292   -7.5884    0.0000 O.3     1  UNL1       -0.3864
     18 O           4.2690   -8.5884    0.0000 O.3     1  UNL1       -0.3841
     19 O          12.9292   -5.5884    0.0000 O.3     1  UNL1       -0.3866
     20 O          16.0150    8.3605    0.0000 O.3     1  UNL1       -0.3924
     21 O           2.5369   -7.5884    0.0000 O.3     1  UNL1       -0.3864
     22 O           2.5369   -5.5884    0.0000 O.3     1  UNL1       -0.3865
     23 O           3.4030   -4.0884    0.0000 O.3     1  UNL1       -0.3924
     24 C           9.4944    0.6085    0.0000 C.3     1  UNL1       -0.0233
     25 C          10.3623    0.1118    0.0000 C.3     1  UNL1       -0.0295
     26 C           9.6999    1.5811    0.0000 C.3     1  UNL1       -0.0015
     27 C          10.3662   -0.8882    0.0000 C.3     1  UNL1       -0.0306
     28 C          10.6882    1.6880    0.0000 C.3     1  UNL1        0.0660
     29 C           9.5021   -1.3915    0.0000 C.3     1  UNL1       -0.0285
     30 C          11.0968    0.7817    0.0000 C.3     1  UNL1       -0.0226
     31 C           8.6303    0.1051    0.0000 C.3     1  UNL1       -0.0467
     32 C           9.2976    2.4837    0.0000 C.3     1  UNL1        0.0158
     33 C           8.6342   -0.8949    0.0000 C.3     1  UNL1       -0.0486
     34 C           9.4901   -2.4331    0.0000 C.3     1  UNL1       -0.0078
     35 C          10.0305    3.1465    0.0000 C.3     1  UNL1        0.1704
     36 C           8.6264    1.1051    0.0000 C.3     1  UNL1       -0.0590
     37 C          11.2781   -1.3915    0.0000 C.3     1  UNL1       -0.0311
     38 C          10.3901   -2.9574    0.0000 C.2     1  UNL1       -0.0648
     39 C           8.5402   -2.9574    0.0000 C.3     1  UNL1       -0.0413
     40 C          11.2902   -2.4331    0.0000 C.2     1  UNL1       -0.0839
     41 C           8.3192    2.6904    0.0000 C.3     1  UNL1       -0.0572
     42 C           8.6260   -1.9297    0.0000 C.3     1  UNL1       -0.0556
     43 C          10.5279    4.0140    0.0000 C.3     1  UNL1        0.0018
     44 C          10.4027   -4.0423    0.0000 C.3     1  UNL1       -0.0047
     45 C           8.5276   -4.0423    0.0000 C.3     1  UNL1       -0.0254
     46 C           9.4651   -4.5884    0.0000 C.3     1  UNL1        0.0655
     47 C          11.5279    4.0170    0.0000 C.3     1  UNL1       -0.0435
     48 C          12.0253    4.8845    0.0000 C.3     1  UNL1       -0.0201
     49 C           8.5991   -6.0884    0.0000 C.3     1  UNL1        0.1886
     50 C          13.0253    4.8875    0.0000 C.3     1  UNL1        0.0533
     51 C          11.5228    5.7490    0.0000 C.3     1  UNL1       -0.0603
     52 C           8.5991   -7.0884    0.0000 C.3     1  UNL1        0.1406
     53 C           7.7331   -7.5884    0.0000 C.3     1  UNL1        0.1148
     54 C           6.8671   -6.0884    0.0000 C.3     1  UNL1        0.1134
     55 C           6.8671   -7.0884    0.0000 C.3     1  UNL1        0.1184
     56 C          14.5227    5.7580    0.0000 C.3     1  UNL1        0.1879
     57 C           6.0010   -5.5884    0.0000 C.3     1  UNL1        0.0730
     58 C          10.3312   -7.0884    0.0000 C.3     1  UNL1        0.1884
     59 C          15.0253    4.8935    0.0000 C.3     1  UNL1        0.1341
     60 C          11.1972   -7.5884    0.0000 C.3     1  UNL1        0.1341
     61 C           5.1350   -7.0884    0.0000 C.3     1  UNL1        0.1884
     62 C          16.0253    4.8965    0.0000 C.3     1  UNL1        0.1141
     63 C          16.0201    6.6285    0.0000 C.3     1  UNL1        0.1130
     64 C          16.5227    5.7640    0.0000 C.3     1  UNL1        0.1119
     65 C          12.0632   -7.0884    0.0000 C.3     1  UNL1        0.1140
     66 C          11.1972   -5.5884    0.0000 C.3     1  UNL1        0.0873
     67 C           4.2690   -7.5884    0.0000 C.3     1  UNL1        0.1341
     68 C          12.0632   -6.0884    0.0000 C.3     1  UNL1        0.1095
     69 C          16.5176    7.4960    0.0000 C.3     1  UNL1        0.0730
     70 C           3.4030   -7.0884    0.0000 C.3     1  UNL1        0.1141
     71 C           4.2690   -5.5884    0.0000 C.3     1  UNL1        0.1130
     72 C           3.4030   -6.0884    0.0000 C.3     1  UNL1        0.1119
     73 C          11.1972   -4.5884    0.0000 C.3     1  UNL1       -0.0361
     74 C           4.2690   -4.5884    0.0000 C.3     1  UNL1        0.0730
     75 H          11.1406   -0.2299    0.0000 H       1  UNL1        0.0310
     76 H           8.8546    1.4915    0.0000 H       1  UNL1        0.0335
     77 H          11.0974   -0.4547    0.0000 H       1  UNL1        0.0310
     78 H          11.5330    1.7812    0.0000 H       1  UNL1        0.0600
     79 H          10.2366   -1.8194    0.0000 H       1  UNL1        0.0312
     80 H          11.4642    0.2823    0.0000 H       1  UNL1        0.0293
     81 H          11.6321    1.0946    0.0000 H       1  UNL1        0.0293
     82 H           8.4160    0.6869    0.0000 H       1  UNL1        0.0271
     83 H           8.0201   -0.0049    0.0000 H       1  UNL1        0.0271
     84 H           8.9078    2.0015    0.0000 H       1  UNL1        0.0354
     85 H           8.0232   -0.7895    0.0000 H       1  UNL1        0.0268
     86 H           8.4244   -1.4783    0.0000 H       1  UNL1        0.0268
     87 H           8.9344    1.6433    0.0000 H       1  UNL1        0.0235
     88 H           8.0883    1.4131    0.0000 H       1  UNL1        0.0235
     89 H           8.3185    0.5670    0.0000 H       1  UNL1        0.0235
     90 H          11.8902   -1.4905    0.0000 H       1  UNL1        0.0310
     91 H          11.4804   -0.8054    0.0000 H       1  UNL1        0.0310
     92 H           8.3379   -2.3713    0.0000 H       1  UNL1        0.0274
     93 H           7.9281   -3.0564    0.0000 H       1  UNL1        0.0274
     94 H          11.8295   -2.7389    0.0000 H       1  UNL1        0.0572
     95 H           8.4473    3.2970    0.0000 H       1  UNL1        0.0234
     96 H           7.7125    2.8185    0.0000 H       1  UNL1        0.0234
     97 H           8.1910    2.0838    0.0000 H       1  UNL1        0.0234
     98 H           8.9380   -1.3940    0.0000 H       1  UNL1        0.0238
     99 H           8.0902   -1.6177    0.0000 H       1  UNL1        0.0238
    100 H           8.3139   -2.4655    0.0000 H       1  UNL1        0.0238
    101 H          10.6338    4.6249    0.0000 H       1  UNL1        0.0317
    102 H           9.9447    4.2243    0.0000 H       1  UNL1        0.0317
    103 H          10.6185   -4.6235    0.0000 H       1  UNL1        0.0335
    104 H          11.0123   -3.9291    0.0000 H       1  UNL1        0.0335
    105 H           7.9180   -3.9291    0.0000 H       1  UNL1        0.0290
    106 H           8.3118   -4.6235    0.0000 H       1  UNL1        0.0290
    107 H          10.0027   -4.8974    0.0000 H       1  UNL1        0.0600
    108 H           9.5490    4.4778    0.0000 H       1  UNL1        0.2128
    109 H          11.4221    3.4061    0.0000 H       1  UNL1        0.0270
    110 H          12.1112    3.8067    0.0000 H       1  UNL1        0.0270
    111 H          11.4053    4.8826    0.0000 H       1  UNL1        0.0320
    112 H           8.5991   -5.4684    0.0000 H       1  UNL1        0.0938
    113 H          12.9195    4.2766    0.0000 H       1  UNL1        0.0563
    114 H          13.6086    4.6772    0.0000 H       1  UNL1        0.0563
    115 H          12.0588    6.0606    0.0000 H       1  UNL1        0.0233
    116 H          11.2112    6.2850    0.0000 H       1  UNL1        0.0233
    117 H          10.9868    5.4374    0.0000 H       1  UNL1        0.0233
    118 H           8.5991   -7.7084    0.0000 H       1  UNL1        0.0675
    119 H           7.1962   -7.8984    0.0000 H       1  UNL1        0.0648
    120 H           6.8671   -5.4684    0.0000 H       1  UNL1        0.0647
    121 H           6.3301   -6.7784    0.0000 H       1  UNL1        0.0651
    122 H          14.2111    6.2940    0.0000 H       1  UNL1        0.0937
    123 H           5.3905   -5.4807    0.0000 H       1  UNL1        0.0584
    124 H           5.7890   -6.1710    0.0000 H       1  UNL1        0.0584
    125 H           9.7942   -6.7784    0.0000 H       1  UNL1        0.0938
    126 H           7.1962   -8.8984    0.0000 H       1  UNL1        0.2100
    127 H          14.4053    4.8916    0.0000 H       1  UNL1        0.0671
    128 H          11.7341   -7.8984    0.0000 H       1  UNL1        0.0671
    129 H           5.1350   -7.7084    0.0000 H       1  UNL1        0.0938
    130 H          15.7169    4.3586    0.0000 H       1  UNL1        0.0648
    131 H          15.7085    7.1645    0.0000 H       1  UNL1        0.0647
    132 H          16.8343    5.2280    0.0000 H       1  UNL1        0.0647
    133 H           5.4641   -4.2784    0.0000 H       1  UNL1        0.2095
    134 H          12.6002   -6.7784    0.0000 H       1  UNL1        0.0648
    135 H          10.6603   -5.2784    0.0000 H       1  UNL1        0.0621
    136 H           3.7320   -7.8984    0.0000 H       1  UNL1        0.0671
    137 H          12.0632   -5.4684    0.0000 H       1  UNL1        0.0646
    138 H          14.8395    3.4899    0.0000 H       1  UNL1        0.2101
    139 H          16.9937    7.0989    0.0000 H       1  UNL1        0.0584
    140 H          16.9913    7.8960    0.0000 H       1  UNL1        0.0584
    141 H           2.8660   -6.7784    0.0000 H       1  UNL1        0.0648
    142 H          11.7341   -8.8984    0.0000 H       1  UNL1        0.2101
    143 H           4.8059   -5.2784    0.0000 H       1  UNL1        0.0647
    144 H          17.1479    4.0338    0.0000 H       1  UNL1        0.2100
    145 H           3.4030   -5.4684    0.0000 H       1  UNL1        0.0647
    146 H          11.8172   -4.5884    0.0000 H       1  UNL1        0.0255
    147 H          11.1972   -3.9684    0.0000 H       1  UNL1        0.0255
    148 H          10.5772   -4.5884    0.0000 H       1  UNL1        0.0255
    149 H          17.8311    6.3048    0.0000 H       1  UNL1        0.2100
    150 H          13.4662   -7.2784    0.0000 H       1  UNL1        0.2100
    151 H           3.7320   -8.8984    0.0000 H       1  UNL1        0.2101
    152 H          13.4662   -5.8984    0.0000 H       1  UNL1        0.2100
    153 H           4.8796   -4.6961    0.0000 H       1  UNL1        0.0584
    154 H           4.4810   -4.0058    0.0000 H       1  UNL1        0.0584
    155 H          16.3234    8.8984    0.0000 H       1  UNL1        0.2095
    156 H           2.0000   -7.2784    0.0000 H       1  UNL1        0.2100
    157 H           2.5369   -4.9684    0.0000 H       1  UNL1        0.2100
    158 H           3.4030   -3.4684    0.0000 H       1  UNL1        0.2095
@<TRIPOS>BOND
     1     1    28    1
     2     1    35    1
     3    35     2    1
     4     2   108    1
     5    46     3    1
     6    49     3    1
     7     4    49    1
     8     4    54    1
     9     5    50    1
    10    56     5    1
    11    52     6    1
    12    58     6    1
    13    53     7    1
    14     7   126    1
    15    55     8    1
    16    61     8    1
    17     9    56    1
    18     9    63    1
    19    10    58    1
    20    10    66    1
    21    11    57    1
    22    11   133    1
    23    59    12    1
    24    12   138    1
    25    13    61    1
    26    13    71    1
    27    60    14    1
    28    14   142    1
    29    62    15    1
    30    15   144    1
    31    64    16    1
    32    16   149    1
    33    65    17    1
    34    17   150    1
    35    67    18    1
    36    18   151    1
    37    68    19    1
    38    19   152    1
    39    20    69    1
    40    20   155    1
    41    70    21    1
    42    21   156    1
    43    72    22    1
    44    22   157    1
    45    23    74    1
    46    23   158    1
    47    24    25    1
    48    24    26    1
    49    24    31    1
    50    24    36    1
    51    25    27    1
    52    25    30    1
    53    25    75    1
    54    26    28    1
    55    26    32    1
    56    26    76    1
    57    27    29    1
    58    27    37    1
    59    27    77    1
    60    28    30    1
    61    28    78    1
    62    29    33    1
    63    29    34    1
    64    29    79    1
    65    30    80    1
    66    30    81    1
    67    31    33    1
    68    31    82    1
    69    31    83    1
    70    32    35    1
    71    32    41    1
    72    32    84    1
    73    33    85    1
    74    33    86    1
    75    34    38    1
    76    34    39    1
    77    34    42    1
    78    35    43    1
    79    36    87    1
    80    36    88    1
    81    36    89    1
    82    37    40    1
    83    37    90    1
    84    37    91    1
    85    38    40    2
    86    38    44    1
    87    39    45    1
    88    39    92    1
    89    39    93    1
    90    40    94    1
    91    41    95    1
    92    41    96    1
    93    41    97    1
    94    42    98    1
    95    42    99    1
    96    42   100    1
    97    43    47    1
    98    43   101    1
    99    43   102    1
   100    44    46    1
   101    44   103    1
   102    44   104    1
   103    45    46    1
   104    45   105    1
   105    45   106    1
   106    46   107    1
   107    47    48    1
   108    47   109    1
   109    47   110    1
   110    48    50    1
   111    48    51    1
   112    48   111    1
   113    49    52    1
   114    49   112    1
   115    50   113    1
   116    50   114    1
   117    51   115    1
   118    51   116    1
   119    51   117    1
   120    52    53    1
   121    52   118    1
   122    53    55    1
   123    53   119    1
   124    54    55    1
   125    54    57    1
   126    54   120    1
   127    55   121    1
   128    56    59    1
   129    56   122    1
   130    57   123    1
   131    57   124    1
   132    58    60    1
   133    58   125    1
   134    59    62    1
   135    59   127    1
   136    60    65    1
   137    60   128    1
   138    61    67    1
   139    61   129    1
   140    62    64    1
   141    62   130    1
   142    63    64    1
   143    63    69    1
   144    63   131    1
   145    64   132    1
   146    65    68    1
   147    65   134    1
   148    66    68    1
   149    66    73    1
   150    66   135    1
   151    67    70    1
   152    67   136    1
   153    68   137    1
   154    69   139    1
   155    69   140    1
   156    70    72    1
   157    70   141    1
   158    71    72    1
   159    71    74    1
   160    71   143    1
   161    72   145    1
   162    73   146    1
   163    73   147    1
   164    73   148    1
   165    74   153    1
   166    74   154    1
