@<TRIPOS>MOLECULE
IMPHY007272
 37 39 0 0 0
SMALL
GASTEIGER

@<TRIPOS>ATOM
      1 C           4.6362   -0.7154    0.0000 C.3     1  UNL1       -0.0185
      2 C           4.6362    1.2846    0.0000 C.3     1  UNL1       -0.0306
      3 C           4.6523   -1.7569    0.0000 C.3     1  UNL1       -0.0135
      4 C           5.5022    0.7846    0.0000 C.3     1  UNL1       -0.0348
      5 C           3.7702   -0.2154    0.0000 C.3     1  UNL1       -0.0102
      6 C           5.5022   -0.2154    0.0000 C.3     1  UNL1       -0.0432
      7 C           3.7702    0.7846    0.0000 C.3     1  UNL1       -0.0421
      8 C           5.5022   -1.2154    0.0000 C.3     1  UNL1       -0.0585
      9 C           6.3683    1.2846    0.0000 C.3     1  UNL1       -0.0436
     10 C           3.7542   -2.2846    0.0000 C.2     1  UNL1       -0.0799
     11 C           2.8602   -0.7222    0.0000 C.2     1  UNL1       -0.0511
     12 C           2.8522   -1.7638    0.0000 C.2     1  UNL1       -0.0625
     13 C           6.3683    2.2846    0.0000 C.3     1  UNL1       -0.0624
     14 C           7.2343    0.7846    0.0000 C.3     1  UNL1       -0.0624
     15 C           2.0000   -0.2122    0.0000 C.2     1  UNL1       -0.0952
     16 H           4.6362    1.9046    0.0000 H       1  UNL1        0.0310
     17 H           5.1912   -2.0634    0.0000 H       1  UNL1        0.0351
     18 H           6.0392    0.4746    0.0000 H       1  UNL1        0.0306
     19 H           4.3071    0.0946    0.0000 H       1  UNL1        0.0354
     20 H           5.7143   -0.7980    0.0000 H       1  UNL1        0.0274
     21 H           6.1128   -0.1077    0.0000 H       1  UNL1        0.0274
     22 H           3.5581    1.3672    0.0000 H       1  UNL1        0.0274
     23 H           3.1596    0.6770    0.0000 H       1  UNL1        0.0274
     24 H           5.1922   -1.7523    0.0000 H       1  UNL1        0.0235
     25 H           6.0392   -1.5254    0.0000 H       1  UNL1        0.0235
     26 H           5.8122   -0.6784    0.0000 H       1  UNL1        0.0235
     27 H           6.9052    1.5946    0.0000 H       1  UNL1        0.0298
     28 H           3.7566   -2.9046    0.0000 H       1  UNL1        0.0575
     29 H           2.3140   -2.0717    0.0000 H       1  UNL1        0.0617
     30 H           6.9243    0.2477    0.0000 H       1  UNL1        0.0232
     31 H           7.7712    0.4746    0.0000 H       1  UNL1        0.0232
     32 H           7.5443    1.3216    0.0000 H       1  UNL1        0.0232
     33 H           6.9883    2.2846    0.0000 H       1  UNL1        0.0232
     34 H           6.3683    2.9046    0.0000 H       1  UNL1        0.0232
     35 H           5.7483    2.2846    0.0000 H       1  UNL1        0.0232
     36 H           2.0072    0.4077    0.0000 H       1  UNL1        0.0538
     37 H           1.4595   -0.5160    0.0000 H       1  UNL1        0.0538
@<TRIPOS>BOND
     1     1     3    1
     2     1     5    1
     3     1     6    1
     4     1     8    1
     5     2     3    1
     6     2     4    1
     7     2     7    1
     8     2    16    1
     9     3    10    1
    10     3    17    1
    11     4     6    1
    12     4     9    1
    13     4    18    1
    14     5     7    1
    15     5    11    1
    16     5    19    1
    17     6    20    1
    18     6    21    1
    19     7    22    1
    20     7    23    1
    21     8    24    1
    22     8    25    1
    23     8    26    1
    24     9    13    1
    25     9    14    1
    26     9    27    1
    27    10    12    2
    28    10    28    1
    29    11    12    1
    30    11    15    2
    31    12    29    1
    32    13    33    1
    33    13    34    1
    34    13    35    1
    35    14    30    1
    36    14    31    1
    37    14    32    1
    38    15    36    1
    39    15    37    1
