@<TRIPOS>MOLECULE
IMPHY004066
 14 14 0 0 0
SMALL
GASTEIGER

@<TRIPOS>ATOM
      1 S1          5.5929    1.1191    0.0000 S.3     1  <1>        -0.1004
      2 S2          6.8530   -0.1410    0.0000 S.2     1  <1>        -0.0281
      3 O1          2.5896    0.5282    0.0000 O.3     1  <1>        -0.4793
      4 O2          3.1249   -1.1191    0.0000 O.2     1  <1>        -0.2489
      5 N1          5.0929   -0.4197    0.0000 N.am    1  <1>        -0.3197
      6 C1          4.2839    0.1681    0.0000 C.3     1  <1>         0.1284
      7 C2          4.5929    1.1191    0.0000 C.3     1  <1>         0.0287
      8 C3          5.9019    0.1681    0.0000 C.2     1  <1>         0.1073
      9 C4          3.3328   -0.1410    0.0000 C.2     1  <1>         0.3260
     10 H1          4.1869   -0.4443    0.0000 H       1  <1>         0.0622
     11 H2          4.6577    1.7357    0.0000 H       1  <1>         0.0404
     12 H3          3.9864    1.2480    0.0000 H       1  <1>         0.0404
     13 H4          5.0929   -1.0397    0.0000 H       1  <1>         0.1479
     14 H5          2.0000    0.3366    0.0000 H       1  <1>         0.2951
@<TRIPOS>BOND
     1     1     7    1
     2     1     8    1
     3     2     8    2
     4     3     9    1
     5     3    14    1
     6     4     9    2
     7     5     6    1
     8     5     8    1
     9     5    13    1
    10     6     7    1
    11     6     9    1
    12     6    10    1
    13     7    11    1
    14     7    12    1
