@<TRIPOS>MOLECULE
IMPHY011027
 40 40 0 0 0
SMALL
GASTEIGER

@<TRIPOS>ATOM
      1 O           2.8660    2.2500    0.0000 O.3     1  UNL1       -0.3877
      2 C           2.8660    0.2500    0.0000 C.3     1  UNL1       -0.0198
      3 C           2.8660   -0.7500    0.0000 C.2     1  UNL1       -0.0665
      4 C           3.7320    0.7500    0.0000 C.3     1  UNL1       -0.0170
      5 C           2.0000   -1.2500    0.0000 C.3     1  UNL1       -0.0130
      6 C           3.7320    1.7500    0.0000 C.3     1  UNL1        0.0741
      7 C           2.0000    0.7500    0.0000 C.3     1  UNL1       -0.0586
      8 C           3.7320   -1.2500    0.0000 C.2     1  UNL1       -0.0802
      9 C           3.7320   -2.2500    0.0000 C.3     1  UNL1       -0.0135
     10 C           2.8660   -2.7500    0.0000 C.2     1  UNL1       -0.0725
     11 C           2.0000   -2.2500    0.0000 C.2     1  UNL1       -0.0807
     12 C           4.5981    2.2500    0.0000 C.2     1  UNL1       -0.0572
     13 C           2.8660   -3.7500    0.0000 C.3     1  UNL1       -0.0435
     14 C           4.5981    3.2500    0.0000 C.2     1  UNL1       -0.0772
     15 C           5.4641    3.7500    0.0000 C.3     1  UNL1       -0.0440
     16 C           3.7320    3.7500    0.0000 C.3     1  UNL1       -0.0440
     17 H           2.8660    0.8700    0.0000 H       1  UNL1        0.0344
     18 H           3.9441    0.1674    0.0000 H       1  UNL1        0.0299
     19 H           4.3426    0.8577    0.0000 H       1  UNL1        0.0299
     20 H           1.7880   -0.6674    0.0000 H       1  UNL1        0.0352
     21 H           1.3894   -1.3577    0.0000 H       1  UNL1        0.0352
     22 H           3.7320    2.3700    0.0000 H       1  UNL1        0.0638
     23 H           2.3100    1.2869    0.0000 H       1  UNL1        0.0235
     24 H           1.4631    1.0600    0.0000 H       1  UNL1        0.0235
     25 H           1.6900    0.2131    0.0000 H       1  UNL1        0.0235
     26 H           4.2690   -0.9400    0.0000 H       1  UNL1        0.0575
     27 H           3.9441   -2.8326    0.0000 H       1  UNL1        0.0352
     28 H           4.3426   -2.1423    0.0000 H       1  UNL1        0.0352
     29 H           1.4631   -2.5600    0.0000 H       1  UNL1        0.0575
     30 H           5.1350    1.9400    0.0000 H       1  UNL1        0.0597
     31 H           2.2460   -3.7500    0.0000 H       1  UNL1        0.0274
     32 H           2.8660   -4.3700    0.0000 H       1  UNL1        0.0274
     33 H           3.4860   -3.7500    0.0000 H       1  UNL1        0.0274
     34 H           2.8660    2.8700    0.0000 H       1  UNL1        0.2102
     35 H           4.0420    4.2869    0.0000 H       1  UNL1        0.0274
     36 H           3.1951    4.0600    0.0000 H       1  UNL1        0.0274
     37 H           3.4220    3.2131    0.0000 H       1  UNL1        0.0274
     38 H           5.7741    3.2131    0.0000 H       1  UNL1        0.0274
     39 H           6.0010    4.0600    0.0000 H       1  UNL1        0.0274
     40 H           5.1541    4.2869    0.0000 H       1  UNL1        0.0274
@<TRIPOS>BOND
     1     1     6    1
     2     1    34    1
     3     2     3    1
     4     2     4    1
     5     2     7    1
     6     2    17    1
     7     3     5    1
     8     3     8    2
     9     4     6    1
    10     4    18    1
    11     4    19    1
    12     5    11    1
    13     5    20    1
    14     5    21    1
    15     6    12    1
    16     6    22    1
    17     7    23    1
    18     7    24    1
    19     7    25    1
    20     8     9    1
    21     8    26    1
    22     9    10    1
    23     9    27    1
    24     9    28    1
    25    10    11    2
    26    10    13    1
    27    11    29    1
    28    12    14    2
    29    12    30    1
    30    13    31    1
    31    13    32    1
    32    13    33    1
    33    14    15    1
    34    14    16    1
    35    15    38    1
    36    15    39    1
    37    15    40    1
    38    16    35    1
    39    16    36    1
    40    16    37    1
