@<TRIPOS>MOLECULE
IMPHY010165
 35 37 0 0 0
SMALL
GASTEIGER

@<TRIPOS>ATOM
      1 O           6.0682   -0.5950    0.0000 O.3     1  UNL1       -0.4774
      2 O           7.8003    1.4050    0.0000 O.3     1  UNL1       -0.3849
      3 O           6.0682    2.4050    0.0000 O.3     1  UNL1       -0.3843
      4 O           4.3198   -1.6296    0.0000 O.3     1  UNL1       -0.5009
      5 O           2.5381   -0.6192    0.0000 O.3     1  UNL1       -0.5032
      6 O          10.3984   -2.0950    0.0000 O.3     1  UNL1       -0.5068
      7 C           6.9343    0.9050    0.0000 C.3     1  UNL1        0.1261
      8 C           6.9343   -0.0950    0.0000 C.3     1  UNL1        0.1538
      9 C           6.0682    1.4050    0.0000 C.3     1  UNL1        0.1133
     10 C           5.2022    0.9050    0.0000 C.ar    1  UNL1        0.0290
     11 C           5.2022   -0.0950    0.0000 C.ar    1  UNL1        0.1721
     12 C           7.8003   -0.5950    0.0000 C.ar    1  UNL1       -0.0045
     13 C           4.3083    1.4397    0.0000 C.ar    1  UNL1       -0.0489
     14 C           4.3083   -0.6297    0.0000 C.ar    1  UNL1        0.2012
     15 C           7.8003   -1.5950    0.0000 C.ar    1  UNL1       -0.0515
     16 C           8.6663   -0.0950    0.0000 C.ar    1  UNL1       -0.0515
     17 C           3.4022    0.9258    0.0000 C.ar    1  UNL1       -0.0159
     18 C           3.4022   -0.1158    0.0000 C.ar    1  UNL1        0.1620
     19 C           8.6663   -2.0950    0.0000 C.ar    1  UNL1       -0.0198
     20 C           9.5323   -0.5950    0.0000 C.ar    1  UNL1       -0.0198
     21 C           9.5323   -1.5950    0.0000 C.ar    1  UNL1        0.1169
     22 H           6.9343    1.7550    0.0000 H       1  UNL1        0.0663
     23 H           6.9343   -0.9450    0.0000 H       1  UNL1        0.0812
     24 H           5.3321    1.8300    0.0000 H       1  UNL1        0.0672
     25 H           4.3154    2.0596    0.0000 H       1  UNL1        0.0623
     26 H           7.8003    2.0250    0.0000 H       1  UNL1        0.2101
     27 H           7.2634   -1.9050    0.0000 H       1  UNL1        0.0623
     28 H           8.6663    0.5250    0.0000 H       1  UNL1        0.0623
     29 H           6.6052    2.7150    0.0000 H       1  UNL1        0.2103
     30 H           2.8665    1.2379    0.0000 H       1  UNL1        0.0655
     31 H           8.6663   -2.7150    0.0000 H       1  UNL1        0.0654
     32 H          10.0693   -0.2850    0.0000 H       1  UNL1        0.0654
     33 H           3.7865   -1.9458    0.0000 H       1  UNL1        0.2924
     34 H           2.0000   -0.3112    0.0000 H       1  UNL1        0.2923
     35 H          10.3984   -2.7150    0.0000 H       1  UNL1        0.2921
@<TRIPOS>BOND
     1     1     8    1
     2     1    11    1
     3     2     7    1
     4     2    26    1
     5     3     9    1
     6     3    29    1
     7     4    14    1
     8     4    33    1
     9     5    18    1
    10     5    34    1
    11     6    21    1
    12     6    35    1
    13     7     8    1
    14     7     9    1
    15     7    22    1
    16     8    12    1
    17     8    23    1
    18     9    10    1
    19     9    24    1
    20    10    11   ar
    21    10    13   ar
    22    11    14   ar
    23    12    15   ar
    24    12    16   ar
    25    13    17   ar
    26    13    25    1
    27    14    18   ar
    28    15    19   ar
    29    15    27    1
    30    16    20   ar
    31    16    28    1
    32    17    18   ar
    33    17    30    1
    34    19    21   ar
    35    19    31    1
    36    20    21   ar
    37    20    32    1
