@<TRIPOS>MOLECULE
IMPHY015436
 37 37 0 0 0
SMALL
GASTEIGER

@<TRIPOS>ATOM
      1 O           5.3660    1.8660    0.0000 O.2     1  UNL1       -0.2930
      2 C           3.0000   -1.2320    0.0000 C.3     1  UNL1       -0.0221
      3 C           3.8660   -0.7321    0.0000 C.3     1  UNL1        0.0121
      4 C           3.0000   -2.2320    0.0000 C.3     1  UNL1       -0.0434
      5 C           4.7320   -1.2320    0.0000 C.2     1  UNL1       -0.0664
      6 C           3.8660   -2.7320    0.0000 C.3     1  UNL1       -0.0340
      7 C           2.0000   -1.2320    0.0000 C.3     1  UNL1       -0.0587
      8 C           2.5000   -0.3660    0.0000 C.3     1  UNL1       -0.0587
      9 C           3.3660    0.1340    0.0000 C.3     1  UNL1       -0.0519
     10 C           4.7320   -2.2320    0.0000 C.2     1  UNL1       -0.0842
     11 C           4.3660    0.1340    0.0000 C.2     1  UNL1       -0.0703
     12 C           5.5981   -0.7321    0.0000 C.3     1  UNL1       -0.0430
     13 C           3.8660    1.0000    0.0000 C.2     1  UNL1       -0.0226
     14 C           4.3660    1.8660    0.0000 C.2     1  UNL1        0.1528
     15 C           3.8660    2.7320    0.0000 C.3     1  UNL1       -0.0020
     16 H           2.3894   -2.1244    0.0000 H       1  UNL1        0.0274
     17 H           2.7880   -2.8147    0.0000 H       1  UNL1        0.0274
     18 H           3.4675   -3.2070    0.0000 H       1  UNL1        0.0308
     19 H           4.2646   -3.2070    0.0000 H       1  UNL1        0.0308
     20 H           2.0000   -0.6121    0.0000 H       1  UNL1        0.0235
     21 H           1.3800   -1.2320    0.0000 H       1  UNL1        0.0235
     22 H           2.0000   -1.8520    0.0000 H       1  UNL1        0.0235
     23 H           3.0369   -0.0560    0.0000 H       1  UNL1        0.0235
     24 H           2.1900    0.1709    0.0000 H       1  UNL1        0.0235
     25 H           1.9631   -0.6760    0.0000 H       1  UNL1        0.0235
     26 H           3.9030    0.4440    0.0000 H       1  UNL1        0.0241
     27 H           3.0560    0.6709    0.0000 H       1  UNL1        0.0241
     28 H           2.8291   -0.1760    0.0000 H       1  UNL1        0.0241
     29 H           5.2690   -2.5420    0.0000 H       1  UNL1        0.0572
     30 H           4.9860    0.1340    0.0000 H       1  UNL1        0.0582
     31 H           5.9081   -1.2690    0.0000 H       1  UNL1        0.0275
     32 H           6.1350   -0.4221    0.0000 H       1  UNL1        0.0275
     33 H           5.2881   -0.1951    0.0000 H       1  UNL1        0.0275
     34 H           3.2460    1.0000    0.0000 H       1  UNL1        0.0649
     35 H           4.4030    3.0420    0.0000 H       1  UNL1        0.0309
     36 H           3.5560    3.2690    0.0000 H       1  UNL1        0.0309
     37 H           3.3291    2.4220    0.0000 H       1  UNL1        0.0309
@<TRIPOS>BOND
     1     1    14    2
     2     2     3    1
     3     2     4    1
     4     2     7    1
     5     2     8    1
     6     3     5    1
     7     3     9    1
     8     3    11    1
     9     4     6    1
    10     4    16    1
    11     4    17    1
    12     5    10    2
    13     5    12    1
    14     6    10    1
    15     6    18    1
    16     6    19    1
    17     7    20    1
    18     7    21    1
    19     7    22    1
    20     8    23    1
    21     8    24    1
    22     8    25    1
    23     9    26    1
    24     9    27    1
    25     9    28    1
    26    10    29    1
    27    11    13    2
    28    11    30    1
    29    12    31    1
    30    12    32    1
    31    12    33    1
    32    13    14    1
    33    13    34    1
    34    14    15    1
    35    15    35    1
    36    15    36    1
    37    15    37    1
