@<TRIPOS>MOLECULE
IMPHY006348
 61 65 0 0 0
SMALL
GASTEIGER

@<TRIPOS>ATOM
      1 O           7.9288   -1.6474    0.0000 O.3     1  UNL1       -0.3877
      2 O           5.2710   -3.1958    0.0000 O.3     1  UNL1       -0.3875
      3 O           2.5357   -2.6997    0.0000 O.3     1  UNL1       -0.3917
      4 O           3.9686   -0.0307    0.0000 O.2     1  UNL1       -0.3003
      5 O           9.1885    3.2259    0.0000 O.3     1  UNL1       -0.4571
      6 O          10.9491    3.5016    0.0000 O.2     1  UNL1       -0.2456
      7 C           7.9288   -0.6474    0.0000 C.3     1  UNL1        0.0751
      8 C           7.0628   -1.1474    0.0000 C.3     1  UNL1       -0.0077
      9 C           7.9288    0.3526    0.0000 C.3     1  UNL1        0.0036
     10 C           6.1968   -0.6474    0.0000 C.3     1  UNL1       -0.0208
     11 C           5.2868   -1.1542    0.0000 C.3     1  UNL1        0.0579
     12 C           5.2787   -2.1958    0.0000 C.3     1  UNL1        0.0807
     13 C           8.8750    0.6574    0.0000 C.3     1  UNL1       -0.0081
     14 C           7.0628    0.8526    0.0000 C.3     1  UNL1       -0.0442
     15 C           6.1968    0.3526    0.0000 C.3     1  UNL1       -0.0483
     16 C           8.8750   -0.9521    0.0000 C.3     1  UNL1       -0.0226
     17 C           7.0789   -2.1889    0.0000 C.3     1  UNL1       -0.0447
     18 C           6.1808   -2.7166    0.0000 C.3     1  UNL1       -0.0226
     19 C           9.4586   -0.1474    0.0000 C.3     1  UNL1       -0.0432
     20 C           4.3599   -0.5901    0.0000 C.3     1  UNL1       -0.0357
     21 C           7.9288    1.3526    0.0000 C.3     1  UNL1       -0.0564
     22 C           4.3433   -2.7455    0.0000 C.3     1  UNL1        0.0030
     23 C           3.4120   -1.1181    0.0000 C.3     1  UNL1       -0.0258
     24 C           3.4037   -2.2030    0.0000 C.3     1  UNL1        0.0579
     25 C           4.9520   -0.2119    0.0000 C.2     1  UNL1        0.1294
     26 C           9.1857    1.6079    0.0000 C.2     1  UNL1       -0.0222
     27 C           8.5993    2.4179    0.0000 C.3     1  UNL1        0.1147
     28 C          10.1373    1.9152    0.0000 C.2     1  UNL1        0.0252
     29 C          10.1390    2.9152    0.0000 C.2     1  UNL1        0.3323
     30 H           7.8022   -1.5667    0.0000 H       1  UNL1        0.0332
     31 H           6.9329   -0.2224    0.0000 H       1  UNL1        0.0315
     32 H           9.4875    0.7536    0.0000 H       1  UNL1        0.0353
     33 H           7.4613    1.3276    0.0000 H       1  UNL1        0.0272
     34 H           6.6643    1.3276    0.0000 H       1  UNL1        0.0272
     35 H           5.9847    0.9352    0.0000 H       1  UNL1        0.0269
     36 H           5.5862    0.2450    0.0000 H       1  UNL1        0.0269
     37 H           8.6240   -1.5190    0.0000 H       1  UNL1        0.0293
     38 H           9.4124   -1.2613    0.0000 H       1  UNL1        0.0293
     39 H           7.2969   -2.7693    0.0000 H       1  UNL1        0.0270
     40 H           7.6880   -2.0734    0.0000 H       1  UNL1        0.0270
     41 H           5.7835   -3.1926    0.0000 H       1  UNL1        0.0293
     42 H           6.5818   -3.1895    0.0000 H       1  UNL1        0.0293
     43 H           9.9195   -0.5621    0.0000 H       1  UNL1        0.0272
     44 H           9.9195    0.2674    0.0000 H       1  UNL1        0.0272
     45 H           4.7681   -0.1235    0.0000 H       1  UNL1        0.0276
     46 H           3.9700   -0.1081    0.0000 H       1  UNL1        0.0276
     47 H           8.5488    1.3526    0.0000 H       1  UNL1        0.0236
     48 H           7.9288    1.9726    0.0000 H       1  UNL1        0.0236
     49 H           7.3088    1.3526    0.0000 H       1  UNL1        0.0236
     50 H           3.9460   -3.2215    0.0000 H       1  UNL1        0.0318
     51 H           4.7443   -3.2184    0.0000 H       1  UNL1        0.0318
     52 H           3.2075   -0.5328    0.0000 H       1  UNL1        0.0290
     53 H           2.8004   -1.2195    0.0000 H       1  UNL1        0.0290
     54 H           3.4025   -2.8230    0.0000 H       1  UNL1        0.0594
     55 H           8.4658   -1.9574    0.0000 H       1  UNL1        0.2102
     56 H           5.3542    0.2599    0.0000 H       1  UNL1        0.1033
     57 H           4.7317   -3.5016    0.0000 H       1  UNL1        0.2102
     58 H           8.1393    2.8336    0.0000 H       1  UNL1        0.0746
     59 H           8.1378    2.0038    0.0000 H       1  UNL1        0.0746
     60 H          10.6383    1.5500    0.0000 H       1  UNL1        0.0689
     61 H           2.0000   -2.3876    0.0000 H       1  UNL1        0.2098
@<TRIPOS>BOND
     1     7     1    1
     2     1    55    1
     3    12     2    1
     4     2    57    1
     5    24     3    1
     6     3    61    1
     7     4    25    2
     8     5    27    1
     9     5    29    1
    10     6    29    2
    11     7     8    1
    12     7     9    1
    13     7    16    1
    14     8    10    1
    15     8    17    1
    16     8    30    1
    17     9    13    1
    18     9    14    1
    19     9    21    1
    20    10    11    1
    21    10    15    1
    22    10    31    1
    23    11    12    1
    24    11    20    1
    25    11    25    1
    26    12    18    1
    27    12    22    1
    28    13    19    1
    29    13    26    1
    30    13    32    1
    31    14    15    1
    32    14    33    1
    33    14    34    1
    34    15    35    1
    35    15    36    1
    36    16    19    1
    37    16    37    1
    38    16    38    1
    39    17    18    1
    40    17    39    1
    41    17    40    1
    42    18    41    1
    43    18    42    1
    44    19    43    1
    45    19    44    1
    46    20    23    1
    47    20    45    1
    48    20    46    1
    49    21    47    1
    50    21    48    1
    51    21    49    1
    52    22    24    1
    53    22    50    1
    54    22    51    1
    55    23    24    1
    56    23    52    1
    57    23    53    1
    58    24    54    1
    59    25    56    1
    60    26    27    1
    61    26    28    2
    62    27    58    1
    63    27    59    1
    64    28    29    1
    65    28    60    1
