@<TRIPOS>MOLECULE
IMPHY015865
 30 29 0 0 0
SMALL
GASTEIGER

@<TRIPOS>ATOM
      1 O           3.4030   -1.0600    0.0000 O.2     1  UNL1       -0.2760
      2 N           2.5369    0.4400    0.0000 N.am    1  UNL1       -0.3293
      3 C           6.8671   -0.0600    0.0000 C.3     1  UNL1       -0.0530
      4 C           7.7331    0.4400    0.0000 C.3     1  UNL1       -0.0531
      5 C           6.0010    0.4400    0.0000 C.3     1  UNL1       -0.0526
      6 C           8.5991   -0.0600    0.0000 C.3     1  UNL1       -0.0533
      7 C           5.1350   -0.0600    0.0000 C.3     1  UNL1       -0.0448
      8 C           9.4651    0.4400    0.0000 C.3     1  UNL1       -0.0559
      9 C           4.2690    0.4400    0.0000 C.3     1  UNL1        0.0237
     10 C          10.3312   -0.0600    0.0000 C.3     1  UNL1       -0.0653
     11 C           3.4030   -0.0600    0.0000 C.2     1  UNL1        0.2105
     12 H           6.4685   -0.5349    0.0000 H       1  UNL1        0.0265
     13 H           7.2656   -0.5349    0.0000 H       1  UNL1        0.0265
     14 H           8.1316    0.9149    0.0000 H       1  UNL1        0.0265
     15 H           7.3346    0.9149    0.0000 H       1  UNL1        0.0265
     16 H           6.3996    0.9149    0.0000 H       1  UNL1        0.0265
     17 H           5.6025    0.9149    0.0000 H       1  UNL1        0.0265
     18 H           8.2006   -0.5349    0.0000 H       1  UNL1        0.0265
     19 H           8.9976   -0.5349    0.0000 H       1  UNL1        0.0265
     20 H           4.7365   -0.5349    0.0000 H       1  UNL1        0.0270
     21 H           5.5335   -0.5349    0.0000 H       1  UNL1        0.0270
     22 H           9.8637    0.9149    0.0000 H       1  UNL1        0.0263
     23 H           9.0666    0.9149    0.0000 H       1  UNL1        0.0263
     24 H           4.6675    0.9149    0.0000 H       1  UNL1        0.0358
     25 H           3.8705    0.9149    0.0000 H       1  UNL1        0.0358
     26 H          10.0212   -0.5969    0.0000 H       1  UNL1        0.0230
     27 H          10.8681   -0.3700    0.0000 H       1  UNL1        0.0230
     28 H          10.6412    0.4769    0.0000 H       1  UNL1        0.0230
     29 H           2.0000    0.1300    0.0000 H       1  UNL1        0.1449
     30 H           2.5369    1.0600    0.0000 H       1  UNL1        0.1449
@<TRIPOS>BOND
     1     1    11    2
     2     2    11   am
     3     2    29    1
     4     2    30    1
     5     3     4    1
     6     3     5    1
     7     3    12    1
     8     3    13    1
     9     4     6    1
    10     4    14    1
    11     4    15    1
    12     5     7    1
    13     5    16    1
    14     5    17    1
    15     6     8    1
    16     6    18    1
    17     6    19    1
    18     7     9    1
    19     7    20    1
    20     7    21    1
    21     8    10    1
    22     8    22    1
    23     8    23    1
    24     9    11    1
    25     9    24    1
    26     9    25    1
    27    10    26    1
    28    10    27    1
    29    10    28    1
