@<TRIPOS>MOLECULE
IMPHY001304
 49 53 0 0 0
SMALL
GASTEIGER

@<TRIPOS>ATOM
      1 O           4.9934    0.3284    0.0000 O.3     1  UNL1       -0.4800
      2 O           5.2405    4.0233    0.0000 O.3     1  UNL1       -0.4833
      3 O           2.5664    0.9162    0.0000 O.3     1  UNL1       -0.3765
      4 O           2.3006   -1.1156    0.0000 O.3     1  UNL1       -0.4881
      5 O           7.8606    3.0679    0.0000 O.3     1  UNL1       -0.3875
      6 O           3.7986   -4.4386    0.0000 O.3     1  UNL1       -0.4950
      7 C           3.3754    0.3284    0.0000 C.3     1  UNL1        0.1689
      8 C           4.1844   -0.2593    0.0000 C.3     1  UNL1        0.1645
      9 C           3.6844    1.2795    0.0000 C.ar    1  UNL1        0.0332
     10 C           4.6844    1.2795    0.0000 C.ar    1  UNL1        0.1344
     11 C           5.2191    2.1734    0.0000 C.ar    1  UNL1        0.0388
     12 C           6.3255    4.0233    0.0000 C.3     1  UNL1        0.1310
     13 C           2.4174   -0.0805    0.0000 C.3     1  UNL1        0.1263
     14 C           6.8607    3.0795    0.0000 C.3     1  UNL1        0.0984
     15 C           6.3038    2.1484    0.0000 C.3     1  UNL1        0.0091
     16 C           4.0915   -1.2968    0.0000 C.ar    1  UNL1        0.0378
     17 C           4.7053    3.0795    0.0000 C.ar    1  UNL1        0.1281
     18 C           3.1498    2.1734    0.0000 C.ar    1  UNL1       -0.0486
     19 C           3.1432   -1.7278    0.0000 C.ar    1  UNL1        0.1309
     20 C           3.6636    3.0795    0.0000 C.ar    1  UNL1       -0.0191
     21 C           7.1934    4.5200    0.0000 C.3     1  UNL1       -0.0227
     22 C           6.3293    5.0233    0.0000 C.3     1  UNL1       -0.0227
     23 C           4.9838   -1.9141    0.0000 C.ar    1  UNL1       -0.0480
     24 C           3.0215   -2.8060    0.0000 C.ar    1  UNL1        0.0222
     25 C           4.8871   -2.9948    0.0000 C.ar    1  UNL1       -0.0193
     26 C           3.8993   -3.4437    0.0000 C.ar    1  UNL1        0.1236
     27 C           4.6099   -5.0233    0.0000 C.3     1  UNL1        0.0788
     28 H           4.9238   -0.6787    0.0000 H       1  UNL1        0.0820
     29 H           2.2752    0.5230    0.0000 H       1  UNL1        0.0730
     30 H           1.7985   -0.1174    0.0000 H       1  UNL1        0.0730
     31 H           7.1759    3.6134    0.0000 H       1  UNL1        0.0636
     32 H           6.1836    1.5401    0.0000 H       1  UNL1        0.0342
     33 H           6.8825    1.9258    0.0000 H       1  UNL1        0.0342
     34 H           2.5298    2.1663    0.0000 H       1  UNL1        0.0624
     35 H           3.3516    3.6152    0.0000 H       1  UNL1        0.0654
     36 H           2.0000    0.6640    0.0000 H       1  UNL1        0.2109
     37 H           7.5014    3.9818    0.0000 H       1  UNL1        0.0269
     38 H           7.7316    4.8279    0.0000 H       1  UNL1        0.0269
     39 H           6.8855    5.0581    0.0000 H       1  UNL1        0.0269
     40 H           6.9493    5.0209    0.0000 H       1  UNL1        0.0269
     41 H           6.3317    5.6433    0.0000 H       1  UNL1        0.0269
     42 H           5.7093    5.0257    0.0000 H       1  UNL1        0.0269
     43 H           5.5453   -1.6510    0.0000 H       1  UNL1        0.0624
     44 H           2.4542   -3.0560    0.0000 H       1  UNL1        0.0691
     45 H           8.1644    2.5275    0.0000 H       1  UNL1        0.2100
     46 H           5.3928   -3.3534    0.0000 H       1  UNL1        0.0654
     47 H           4.2474   -5.5263    0.0000 H       1  UNL1        0.0660
     48 H           5.1129   -5.3858    0.0000 H       1  UNL1        0.0660
     49 H           4.9724   -4.5203    0.0000 H       1  UNL1        0.0660
@<TRIPOS>BOND
     1     1     8    1
     2     1    10    1
     3     2    12    1
     4     2    17    1
     5     7     3    1
     6     3    36    1
     7     4    13    1
     8     4    19    1
     9    14     5    1
    10     5    45    1
    11     6    26    1
    12     6    27    1
    13     7     8    1
    14     7     9    1
    15     7    13    1
    16     8    16    1
    17     8    28    1
    18     9    10   ar
    19     9    18   ar
    20    10    11   ar
    21    11    15    1
    22    11    17   ar
    23    12    14    1
    24    12    21    1
    25    12    22    1
    26    13    29    1
    27    13    30    1
    28    14    15    1
    29    14    31    1
    30    15    32    1
    31    15    33    1
    32    16    19   ar
    33    16    23   ar
    34    17    20   ar
    35    18    20   ar
    36    18    34    1
    37    19    24   ar
    38    20    35    1
    39    21    37    1
    40    21    38    1
    41    21    39    1
    42    22    40    1
    43    22    41    1
    44    22    42    1
    45    23    25   ar
    46    23    43    1
    47    24    26   ar
    48    24    44    1
    49    25    26   ar
    50    25    46    1
    51    27    47    1
    52    27    48    1
    53    27    49    1
