@<TRIPOS>MOLECULE
IMPHY010732
 42 47 0 0 0
SMALL
GASTEIGER

@<TRIPOS>ATOM
      1 O           9.1006   -4.8537    0.0000 O.3     1  UNL1       -0.4740
      2 C          10.2401   -5.5048    0.0000 C.3     1  UNL1        0.1959
      3 C          10.2401   -6.8218    0.0000 C.3     1  UNL1        0.1174
      4 C           9.1006   -7.4729    0.0000 C.2     1  UNL1        0.1831
      5 C           7.9760   -6.8218    0.0000 C.ar    1  UNL1        0.1078
      6 C           6.8366   -7.4729    0.0000 C.ar    1  UNL1        0.2044
      7 C           5.6972   -6.8218    0.0000 C.ar    1  UNL1        0.0783
      8 C           5.6972   -5.5048    0.0000 C.ar    1  UNL1        0.2018
      9 C           6.8366   -4.8537    0.0000 C.ar    1  UNL1        0.0792
     10 C           7.9760   -5.5048    0.0000 C.ar    1  UNL1        0.1479
     11 C          11.3795   -4.8537    0.0000 C.ar    1  UNL1        0.0210
     12 C          12.5189   -5.5048    0.0000 C.ar    1  UNL1        0.0446
     13 C          13.6584   -4.8537    0.0000 C.ar    1  UNL1        0.2341
     14 C          13.6584   -3.5367    0.0000 C.ar    1  UNL1        0.2342
     15 C          12.5189   -2.8708    0.0000 C.ar    1  UNL1        0.0452
     16 C          11.3795   -3.5367    0.0000 C.ar    1  UNL1        0.0027
     17 O           9.1006   -8.7751    0.0000 O.2     1  UNL1       -0.2910
     18 O           6.8366   -8.7751    0.0000 O.3     1  UNL1       -0.2863
     19 C           4.5577   -7.4729    0.0000 C.ar    1  UNL1        0.0125
     20 C           3.4035   -6.8218    0.0000 C.ar    1  UNL1        0.0383
     21 C           2.2937   -7.4729    0.0000 C.ar    1  UNL1        0.0484
     22 C           2.2937   -8.7751    0.0000 C.ar    1  UNL1        0.2344
     23 C           3.4183   -9.4410    0.0000 C.ar    1  UNL1        0.2343
     24 C           4.5577   -8.7751    0.0000 C.ar    1  UNL1        0.0457
     25 O           4.5577   -4.8537    0.0000 O.3     1  UNL1       -0.2864
     26 O          14.7978   -5.5048    0.0000 O.3     1  UNL1       -0.2832
     27 O          14.7978   -2.8708    0.0000 O.3     1  UNL1       -0.2831
     28 C           3.4035   -4.5725    0.0000 C.ar    1  UNL1        0.1485
     29 O           2.2641   -3.9214    0.0000 O.2     1  UNL1       -0.4531
     30 C           2.2641   -2.6192    0.0000 C.ar    1  UNL1        0.1546
     31 C           3.3887   -1.9681    0.0000 C.ar    1  UNL1        0.1126
     32 C           4.5133   -2.6192    0.0000 C.ar    1  UNL1        0.2048
     33 C           4.5133   -3.9214    0.0000 C.ar    1  UNL1        0.0797
     34 C           1.1246   -1.9681    0.0000 C.ar    1  UNL1        0.0798
     35 C           1.1246   -0.6659    0.0000 C.ar    1  UNL1        0.2020
     36 C           2.2641    0.0000    0.0000 C.ar    1  UNL1        0.0843
     37 C           3.3887   -0.6659    0.0000 C.ar    1  UNL1        0.2049
     38 O           1.1394   -9.4410    0.0000 O.3     1  UNL1       -0.2831
     39 O           3.4183  -10.7580    0.0000 O.3     1  UNL1       -0.2831
     40 O           5.6528   -1.9681    0.0000 O.2     1  UNL1       -0.2862
     41 O           0.0000    0.0000    0.0000 O.3     1  UNL1       -0.2864
     42 O           4.5133    0.0000    0.0000 O.3     1  UNL1       -0.2862
@<TRIPOS>BOND
     1     1    10    1
     2     1     2    1
     3     2     3    1
     4     2    11    1
     5     3     4    1
     6     4     5    1
     7     4    17    2
     8     5     6   ar
     9     5    10   ar
    10     6     7   ar
    11     6    18    1
    12     7    19    1
    13     7     8   ar
    14     8     9   ar
    15     8    25    1
    16     9    10   ar
    17    11    12   ar
    18    11    16   ar
    19    12    13   ar
    20    13    14   ar
    21    13    26    1
    22    14    15   ar
    23    14    27    1
    24    15    16   ar
    25    19    20   ar
    26    19    24   ar
    27    20    28    1
    28    20    21   ar
    29    21    22   ar
    30    22    23   ar
    31    22    38    1
    32    23    24   ar
    33    23    39    1
    34    28    29   ar
    35    28    33   ar
    36    29    30   ar
    37    30    34   ar
    38    30    31   ar
    39    31    37   ar
    40    31    32   ar
    41    32    33   ar
    42    32    40    2
    43    34    35   ar
    44    35    36   ar
    45    35    41    1
    46    36    37   ar
    47    37    42    1
