@<TRIPOS>MOLECULE
IMPHY008091
 34 38 0 0 0
SMALL
GASTEIGER

@<TRIPOS>ATOM
      1 O           6.2719   -0.7339    0.0000 O.2     1  UNL1       -0.4542
      2 O           6.4811    2.2379    0.0000 O.3     1  UNL1       -0.4864
      3 O           2.2123   -0.7507    0.0000 O.3     1  UNL1       -0.4526
      4 O           2.8914   -2.2725    0.0000 O.3     1  UNL1       -0.4525
      5 O          10.0112    2.2620    0.0000 O.3     1  UNL1       -0.4950
      6 C           5.6151    0.7379    0.0000 C.ar    1  UNL1        0.0433
      7 C           4.8780    0.0708    0.0000 C.ar    1  UNL1        0.0309
      8 C           6.4811    0.2379    0.0000 C.ar    1  UNL1        0.1461
      9 C           5.2832   -0.8370    0.0000 C.ar    1  UNL1        0.1398
     10 C           5.6151    1.7379    0.0000 C.3     1  UNL1        0.1187
     11 C           7.3471    0.7379    0.0000 C.ar    1  UNL1        0.0595
     12 C           3.8499    0.1940    0.0000 C.ar    1  UNL1       -0.0050
     13 C           7.3471    1.7379    0.0000 C.ar    1  UNL1        0.1351
     14 C           3.2356   -0.6395    0.0000 C.ar    1  UNL1        0.1670
     15 C           4.6882   -1.6845    0.0000 C.ar    1  UNL1        0.0268
     16 C           3.6576   -1.5851    0.0000 C.ar    1  UNL1        0.1698
     17 C           8.2410    0.2032    0.0000 C.ar    1  UNL1       -0.0441
     18 C           8.2410    2.2725    0.0000 C.ar    1  UNL1        0.0225
     19 C           2.0000   -1.7579    0.0000 C.3     1  UNL1        0.2332
     20 C           9.1471    1.7587    0.0000 C.ar    1  UNL1        0.1236
     21 C           9.1471    0.7171    0.0000 C.ar    1  UNL1       -0.0191
     22 C          10.8792    1.7654    0.0000 C.3     1  UNL1        0.0788
     23 H           5.4030    2.3205    0.0000 H       1  UNL1        0.0749
     24 H           5.0045    1.6302    0.0000 H       1  UNL1        0.0749
     25 H           3.6038    0.7631    0.0000 H       1  UNL1        0.0662
     26 H           4.9474   -2.2477    0.0000 H       1  UNL1        0.0692
     27 H           8.2339   -0.4167    0.0000 H       1  UNL1        0.0627
     28 H           8.2339    2.8925    0.0000 H       1  UNL1        0.0691
     29 H           1.4101   -1.5670    0.0000 H       1  UNL1        0.1166
     30 H           1.7482   -2.3244    0.0000 H       1  UNL1        0.1166
     31 H           9.6828    0.4050    0.0000 H       1  UNL1        0.0654
     32 H          10.5712    1.2272    0.0000 H       1  UNL1        0.0660
     33 H          11.4173    1.4574    0.0000 H       1  UNL1        0.0660
     34 H          11.1871    2.3035    0.0000 H       1  UNL1        0.0660
@<TRIPOS>BOND
     1     1     8   ar
     2     1     9   ar
     3     2    10    1
     4     2    13    1
     5     3    14    1
     6     3    19    1
     7     4    16    1
     8     4    19    1
     9     5    20    1
    10     5    22    1
    11     6     7   ar
    12     6     8   ar
    13     6    10    1
    14     7     9   ar
    15     7    12   ar
    16     8    11    1
    17     9    15   ar
    18    10    23    1
    19    10    24    1
    20    11    13   ar
    21    11    17   ar
    22    12    14   ar
    23    12    25    1
    24    13    18   ar
    25    14    16   ar
    26    15    16   ar
    27    15    26    1
    28    17    21   ar
    29    17    27    1
    30    18    20   ar
    31    18    28    1
    32    19    29    1
    33    19    30    1
    34    20    21   ar
    35    21    31    1
    36    22    32    1
    37    22    33    1
    38    22    34    1
