@<TRIPOS>MOLECULE
IMPHY011391
 84 88 0 0 0
SMALL
GASTEIGER

@<TRIPOS>ATOM
      1 O           6.8671    1.0000    0.0000 O.3     1  UNL1       -0.3292
      2 O           6.8671   -2.0000    0.0000 O.3     1  UNL1       -0.4512
      3 O           8.5991   -1.0000    0.0000 O.3     1  UNL1       -0.4476
      4 O           5.1350   -1.0000    0.0000 O.3     1  UNL1       -0.3853
      5 O           8.5991    1.0000    0.0000 O.3     1  UNL1       -0.4275
      6 O           5.1350    2.0000    0.0000 O.3     1  UNL1       -0.4584
      7 O           5.1350   -2.0000    0.0000 O.2     1  UNL1       -0.2449
      8 O           9.4651    0.5000    0.0000 O.2     1  UNL1       -0.2449
      9 O           7.7331    2.5000    0.0000 O.2     1  UNL1       -0.2449
     10 O           3.4030    2.0000    0.0000 O.2     1  UNL1       -0.2450
     11 O           7.7331   -5.5000    0.0000 O.3     1  UNL1       -0.5032
     12 O           4.2690   -5.5000    0.0000 O.3     1  UNL1       -0.5032
     13 O          12.9292   -0.5000    0.0000 O.3     1  UNL1       -0.5032
     14 O          11.1972   -3.5000    0.0000 O.3     1  UNL1       -0.5032
     15 O           6.0010   -6.5000    0.0000 O.3     1  UNL1       -0.5009
     16 O          10.3312    5.0000    0.0000 O.3     1  UNL1       -0.5032
     17 O          12.0632    2.0000    0.0000 O.3     1  UNL1       -0.5032
     18 O          12.9292   -2.5000    0.0000 O.3     1  UNL1       -0.5009
     19 O          12.0632    4.0000    0.0000 O.3     1  UNL1       -0.5009
     20 O           2.5369    5.5000    0.0000 O.3     1  UNL1       -0.5032
     21 O           6.0010    5.5000    0.0000 O.3     1  UNL1       -0.5032
     22 O           4.2690    6.5000    0.0000 O.3     1  UNL1       -0.5009
     23 C           6.8671   -1.0000    0.0000 C.3     1  UNL1        0.1742
     24 C           6.0010   -0.5000    0.0000 C.3     1  UNL1        0.1251
     25 C           7.7331   -0.5000    0.0000 C.3     1  UNL1        0.2042
     26 C           6.0010    0.5000    0.0000 C.3     1  UNL1        0.1261
     27 C           7.7331    0.5000    0.0000 C.3     1  UNL1        0.2464
     28 C           5.1350    1.0000    0.0000 C.3     1  UNL1        0.1216
     29 C           6.0010   -2.5000    0.0000 C.2     1  UNL1        0.3399
     30 C           9.4651   -0.5000    0.0000 C.2     1  UNL1        0.3400
     31 C           8.5991    2.0000    0.0000 C.2     1  UNL1        0.3417
     32 C           6.0010   -3.5000    0.0000 C.ar    1  UNL1        0.0661
     33 C          10.3312   -1.0000    0.0000 C.ar    1  UNL1        0.0661
     34 C           4.2690    2.5000    0.0000 C.2     1  UNL1        0.3395
     35 C           9.4651    2.5000    0.0000 C.ar    1  UNL1        0.0662
     36 C           4.2690    3.5000    0.0000 C.ar    1  UNL1        0.0661
     37 C           5.1350   -4.0000    0.0000 C.ar    1  UNL1       -0.0023
     38 C           6.8671   -4.0000    0.0000 C.ar    1  UNL1       -0.0023
     39 C          10.3312   -2.0000    0.0000 C.ar    1  UNL1       -0.0023
     40 C          11.1972   -0.5000    0.0000 C.ar    1  UNL1       -0.0023
     41 C          10.3312    2.0000    0.0000 C.ar    1  UNL1       -0.0023
     42 C           9.4651    3.5000    0.0000 C.ar    1  UNL1       -0.0023
     43 C           6.8671   -5.0000    0.0000 C.ar    1  UNL1        0.1628
     44 C           5.1350   -5.0000    0.0000 C.ar    1  UNL1        0.1628
     45 C          12.0632   -1.0000    0.0000 C.ar    1  UNL1        0.1628
     46 C          11.1972   -2.5000    0.0000 C.ar    1  UNL1        0.1628
     47 C           5.1350    4.0000    0.0000 C.ar    1  UNL1       -0.0023
     48 C           3.4030    4.0000    0.0000 C.ar    1  UNL1       -0.0023
     49 C           6.0010   -5.5000    0.0000 C.ar    1  UNL1        0.2006
     50 C          10.3312    4.0000    0.0000 C.ar    1  UNL1        0.1628
     51 C          11.1972    2.5000    0.0000 C.ar    1  UNL1        0.1628
     52 C          12.0632   -2.0000    0.0000 C.ar    1  UNL1        0.2006
     53 C          11.1972    3.5000    0.0000 C.ar    1  UNL1        0.2006
     54 C           3.4030    5.0000    0.0000 C.ar    1  UNL1        0.1628
     55 C           5.1350    5.0000    0.0000 C.ar    1  UNL1        0.1628
     56 C           4.2690    5.5000    0.0000 C.ar    1  UNL1        0.2006
     57 H           6.3301   -1.3100    0.0000 H       1  UNL1        0.0801
     58 H           6.0010   -1.1200    0.0000 H       1  UNL1        0.0659
     59 H           7.7331   -1.1200    0.0000 H       1  UNL1        0.0837
     60 H           6.0010    1.1200    0.0000 H       1  UNL1        0.0659
     61 H           7.7331    1.1200    0.0000 H       1  UNL1        0.1098
     62 H           4.5244    1.1077    0.0000 H       1  UNL1        0.0725
     63 H           4.9230    0.4174    0.0000 H       1  UNL1        0.0725
     64 H           4.5981   -0.6900    0.0000 H       1  UNL1        0.2101
     65 H           4.5981   -3.6900    0.0000 H       1  UNL1        0.0663
     66 H           7.4040   -3.6900    0.0000 H       1  UNL1        0.0663
     67 H           9.7942   -2.3100    0.0000 H       1  UNL1        0.0663
     68 H          11.1972    0.1200    0.0000 H       1  UNL1        0.0663
     69 H          10.3312    1.3800    0.0000 H       1  UNL1        0.0663
     70 H           8.9282    3.8100    0.0000 H       1  UNL1        0.0663
     71 H           5.6720    3.6900    0.0000 H       1  UNL1        0.0663
     72 H           2.8660    3.6900    0.0000 H       1  UNL1        0.0663
     73 H           7.7331   -6.1200    0.0000 H       1  UNL1        0.2923
     74 H           3.7320   -5.1900    0.0000 H       1  UNL1        0.2923
     75 H          13.4662   -0.8100    0.0000 H       1  UNL1        0.2923
     76 H          10.6603   -3.8100    0.0000 H       1  UNL1        0.2923
     77 H           5.4641   -6.8100    0.0000 H       1  UNL1        0.2924
     78 H           9.7942    5.3100    0.0000 H       1  UNL1        0.2923
     79 H          12.6002    2.3100    0.0000 H       1  UNL1        0.2923
     80 H          12.9292   -3.1200    0.0000 H       1  UNL1        0.2924
     81 H          12.0632    4.6200    0.0000 H       1  UNL1        0.2924
     82 H           2.0000    5.1900    0.0000 H       1  UNL1        0.2923
     83 H           6.0010    6.1200    0.0000 H       1  UNL1        0.2923
     84 H           3.7320    6.8100    0.0000 H       1  UNL1        0.2924
@<TRIPOS>BOND
     1     1    26    1
     2     1    27    1
     3    23     2    1
     4     2    29    1
     5    25     3    1
     6     3    30    1
     7    24     4    1
     8     4    64    1
     9    27     5    1
    10     5    31    1
    11     6    28    1
    12     6    34    1
    13     7    29    2
    14     8    30    2
    15     9    31    2
    16    10    34    2
    17    11    43    1
    18    11    73    1
    19    12    44    1
    20    12    74    1
    21    13    45    1
    22    13    75    1
    23    14    46    1
    24    14    76    1
    25    15    49    1
    26    15    77    1
    27    16    50    1
    28    16    78    1
    29    17    51    1
    30    17    79    1
    31    18    52    1
    32    18    80    1
    33    19    53    1
    34    19    81    1
    35    20    54    1
    36    20    82    1
    37    21    55    1
    38    21    83    1
    39    22    56    1
    40    22    84    1
    41    23    24    1
    42    23    25    1
    43    23    57    1
    44    24    26    1
    45    24    58    1
    46    25    27    1
    47    25    59    1
    48    26    28    1
    49    26    60    1
    50    27    61    1
    51    28    62    1
    52    28    63    1
    53    29    32    1
    54    30    33    1
    55    31    35    1
    56    32    37   ar
    57    32    38   ar
    58    33    39   ar
    59    33    40   ar
    60    34    36    1
    61    35    41   ar
    62    35    42   ar
    63    36    47   ar
    64    36    48   ar
    65    37    44   ar
    66    37    65    1
    67    38    43   ar
    68    38    66    1
    69    39    46   ar
    70    39    67    1
    71    40    45   ar
    72    40    68    1
    73    41    51   ar
    74    41    69    1
    75    42    50   ar
    76    42    70    1
    77    43    49   ar
    78    44    49   ar
    79    45    52   ar
    80    46    52   ar
    81    47    55   ar
    82    47    71    1
    83    48    54   ar
    84    48    72    1
    85    50    53   ar
    86    51    53   ar
    87    54    56   ar
    88    55    56   ar
