@<TRIPOS>MOLECULE
IMPHY015637
 26 25 0 0 0
SMALL
GASTEIGER

@<TRIPOS>ATOM
      1 O           2.8660   -1.0600    0.0000 O.2     1  UNL1       -0.2930
      2 C           7.1962    0.4400    0.0000 C.3     1  UNL1       -0.0530
      3 C           6.3301   -0.0600    0.0000 C.3     1  UNL1       -0.0496
      4 C           8.0622   -0.0600    0.0000 C.3     1  UNL1       -0.0559
      5 C           5.4641    0.4400    0.0000 C.3     1  UNL1       -0.0344
      6 C           8.9282    0.4400    0.0000 C.3     1  UNL1       -0.0653
      7 C           4.5981   -0.0600    0.0000 C.2     1  UNL1       -0.0807
      8 C           3.7320    0.4400    0.0000 C.2     1  UNL1       -0.0234
      9 C           2.8660   -0.0600    0.0000 C.2     1  UNL1        0.1527
     10 C           2.0000    0.4400    0.0000 C.3     1  UNL1       -0.0020
     11 H           7.5947    0.9149    0.0000 H       1  UNL1        0.0265
     12 H           6.7976    0.9149    0.0000 H       1  UNL1        0.0265
     13 H           5.9316   -0.5349    0.0000 H       1  UNL1        0.0268
     14 H           6.7287   -0.5349    0.0000 H       1  UNL1        0.0268
     15 H           7.6636   -0.5349    0.0000 H       1  UNL1        0.0263
     16 H           8.4607   -0.5349    0.0000 H       1  UNL1        0.0263
     17 H           5.8626    0.9149    0.0000 H       1  UNL1        0.0307
     18 H           5.0656    0.9149    0.0000 H       1  UNL1        0.0307
     19 H           9.2382   -0.0969    0.0000 H       1  UNL1        0.0230
     20 H           9.4651    0.7500    0.0000 H       1  UNL1        0.0230
     21 H           8.6182    0.9769    0.0000 H       1  UNL1        0.0230
     22 H           4.5981   -0.6800    0.0000 H       1  UNL1        0.0573
     23 H           3.7320    1.0600    0.0000 H       1  UNL1        0.0649
     24 H           2.3100    0.9769    0.0000 H       1  UNL1        0.0309
     25 H           1.4631    0.7500    0.0000 H       1  UNL1        0.0309
     26 H           1.6900   -0.0969    0.0000 H       1  UNL1        0.0309
@<TRIPOS>BOND
     1     1     9    2
     2     2     3    1
     3     2     4    1
     4     2    11    1
     5     2    12    1
     6     3     5    1
     7     3    13    1
     8     3    14    1
     9     4     6    1
    10     4    15    1
    11     4    16    1
    12     5     7    1
    13     5    17    1
    14     5    18    1
    15     6    19    1
    16     6    20    1
    17     6    21    1
    18     7     8    2
    19     7    22    1
    20     8     9    1
    21     8    23    1
    22     9    10    1
    23    10    24    1
    24    10    25    1
    25    10    26    1
