@<TRIPOS>MOLECULE
IMPHY009565
 86 85 0 0 0
SMALL
GASTEIGER

@<TRIPOS>ATOM
      1 O          13.2583    0.7500    0.0000 O.3     1  UNL1       -0.4646
      2 O          12.3923   -0.7500    0.0000 O.2     1  UNL1       -0.2509
      3 C           4.5981    0.7500    0.0000 C.3     1  UNL1       -0.0505
      4 C           3.7320    0.2500    0.0000 C.3     1  UNL1       -0.0441
      5 C           5.4641    0.2500    0.0000 C.3     1  UNL1       -0.0528
      6 C           6.3301    0.7500    0.0000 C.3     1  UNL1       -0.0530
      7 C           7.1962    0.2500    0.0000 C.3     1  UNL1       -0.0531
      8 C           8.0622    0.7500    0.0000 C.3     1  UNL1       -0.0531
      9 C          19.3205    0.2500    0.0000 C.3     1  UNL1       -0.0531
     10 C           8.9282    0.2500    0.0000 C.3     1  UNL1       -0.0530
     11 C          18.4545    0.7500    0.0000 C.3     1  UNL1       -0.0531
     12 C          20.1865    0.7500    0.0000 C.3     1  UNL1       -0.0531
     13 C           2.8660    0.7500    0.0000 C.3     1  UNL1       -0.0533
     14 C          17.5885    0.2500    0.0000 C.3     1  UNL1       -0.0531
     15 C          21.0526    0.2500    0.0000 C.3     1  UNL1       -0.0531
     16 C           9.7942    0.7500    0.0000 C.3     1  UNL1       -0.0526
     17 C          16.7224    0.7500    0.0000 C.3     1  UNL1       -0.0530
     18 C          21.9186    0.7500    0.0000 C.3     1  UNL1       -0.0531
     19 C           3.7320   -0.7500    0.0000 C.3     1  UNL1       -0.0624
     20 C          15.8564    0.2500    0.0000 C.3     1  UNL1       -0.0500
     21 C          22.7846    0.2500    0.0000 C.3     1  UNL1       -0.0531
     22 C          10.6603    0.2500    0.0000 C.3     1  UNL1       -0.0430
     23 C          14.9904    0.7500    0.0000 C.3     1  UNL1       -0.0185
     24 C          23.6506    0.7500    0.0000 C.3     1  UNL1       -0.0533
     25 C           2.0000    0.2500    0.0000 C.3     1  UNL1       -0.0650
     26 C          11.5263    0.7500    0.0000 C.3     1  UNL1        0.0449
     27 C          14.1244    0.2500    0.0000 C.3     1  UNL1        0.0925
     28 C          24.5167    0.2500    0.0000 C.3     1  UNL1       -0.0559
     29 C          12.3923    0.2500    0.0000 C.2     1  UNL1        0.3071
     30 C          25.3827    0.7500    0.0000 C.3     1  UNL1       -0.0653
     31 H           4.9966    1.2250    0.0000 H       1  UNL1        0.0268
     32 H           4.1996    1.2250    0.0000 H       1  UNL1        0.0268
     33 H           4.2690   -0.0600    0.0000 H       1  UNL1        0.0298
     34 H           5.0656   -0.2249    0.0000 H       1  UNL1        0.0265
     35 H           5.8626   -0.2249    0.0000 H       1  UNL1        0.0265
     36 H           6.7287    1.2250    0.0000 H       1  UNL1        0.0265
     37 H           5.9316    1.2250    0.0000 H       1  UNL1        0.0265
     38 H           6.7976   -0.2249    0.0000 H       1  UNL1        0.0265
     39 H           7.5947   -0.2249    0.0000 H       1  UNL1        0.0265
     40 H           8.4607    1.2250    0.0000 H       1  UNL1        0.0265
     41 H           7.6636    1.2250    0.0000 H       1  UNL1        0.0265
     42 H          18.9220   -0.2249    0.0000 H       1  UNL1        0.0265
     43 H          19.7190   -0.2249    0.0000 H       1  UNL1        0.0265
     44 H           8.5297   -0.2249    0.0000 H       1  UNL1        0.0265
     45 H           9.3267   -0.2249    0.0000 H       1  UNL1        0.0265
     46 H          18.8530    1.2250    0.0000 H       1  UNL1        0.0265
     47 H          18.0560    1.2250    0.0000 H       1  UNL1        0.0265
     48 H          20.5851    1.2250    0.0000 H       1  UNL1        0.0265
     49 H          19.7880    1.2250    0.0000 H       1  UNL1        0.0265
     50 H           3.2646    1.2250    0.0000 H       1  UNL1        0.0265
     51 H           2.4675    1.2250    0.0000 H       1  UNL1        0.0265
     52 H          17.1899   -0.2249    0.0000 H       1  UNL1        0.0265
     53 H          17.9870   -0.2249    0.0000 H       1  UNL1        0.0265
     54 H          20.6540   -0.2249    0.0000 H       1  UNL1        0.0265
     55 H          21.4511   -0.2249    0.0000 H       1  UNL1        0.0265
     56 H          10.1928    1.2250    0.0000 H       1  UNL1        0.0265
     57 H           9.3957    1.2250    0.0000 H       1  UNL1        0.0265
     58 H          17.1210    1.2250    0.0000 H       1  UNL1        0.0265
     59 H          16.3239    1.2250    0.0000 H       1  UNL1        0.0265
     60 H          22.3171    1.2250    0.0000 H       1  UNL1        0.0265
     61 H          21.5201    1.2250    0.0000 H       1  UNL1        0.0265
     62 H           3.1120   -0.7500    0.0000 H       1  UNL1        0.0232
     63 H           3.7320   -1.3700    0.0000 H       1  UNL1        0.0232
     64 H           4.3520   -0.7500    0.0000 H       1  UNL1        0.0232
     65 H          15.4579   -0.2249    0.0000 H       1  UNL1        0.0266
     66 H          16.2549   -0.2249    0.0000 H       1  UNL1        0.0266
     67 H          22.3861   -0.2249    0.0000 H       1  UNL1        0.0265
     68 H          23.1831   -0.2249    0.0000 H       1  UNL1        0.0265
     69 H          10.2617   -0.2249    0.0000 H       1  UNL1        0.0270
     70 H          11.0588   -0.2249    0.0000 H       1  UNL1        0.0270
     71 H          15.3889    1.2250    0.0000 H       1  UNL1        0.0298
     72 H          14.5919    1.2250    0.0000 H       1  UNL1        0.0298
     73 H          24.0492    1.2250    0.0000 H       1  UNL1        0.0265
     74 H          23.2521    1.2250    0.0000 H       1  UNL1        0.0265
     75 H           1.6900    0.7869    0.0000 H       1  UNL1        0.0230
     76 H           1.4631   -0.0600    0.0000 H       1  UNL1        0.0230
     77 H           2.3100   -0.2869    0.0000 H       1  UNL1        0.0230
     78 H          11.9248    1.2250    0.0000 H       1  UNL1        0.0377
     79 H          11.1278    1.2250    0.0000 H       1  UNL1        0.0377
     80 H          13.7258   -0.2249    0.0000 H       1  UNL1        0.0697
     81 H          14.5229   -0.2249    0.0000 H       1  UNL1        0.0697
     82 H          24.1181   -0.2249    0.0000 H       1  UNL1        0.0263
     83 H          24.9152   -0.2249    0.0000 H       1  UNL1        0.0263
     84 H          25.6927    0.2131    0.0000 H       1  UNL1        0.0230
     85 H          25.9196    1.0600    0.0000 H       1  UNL1        0.0230
     86 H          25.0727    1.2869    0.0000 H       1  UNL1        0.0230
@<TRIPOS>BOND
     1     1    27    1
     2     1    29    1
     3     2    29    2
     4     3     4    1
     5     3     5    1
     6     3    31    1
     7     3    32    1
     8     4    13    1
     9     4    19    1
    10     4    33    1
    11     5     6    1
    12     5    34    1
    13     5    35    1
    14     6     7    1
    15     6    36    1
    16     6    37    1
    17     7     8    1
    18     7    38    1
    19     7    39    1
    20     8    10    1
    21     8    40    1
    22     8    41    1
    23     9    11    1
    24     9    12    1
    25     9    42    1
    26     9    43    1
    27    10    16    1
    28    10    44    1
    29    10    45    1
    30    11    14    1
    31    11    46    1
    32    11    47    1
    33    12    15    1
    34    12    48    1
    35    12    49    1
    36    13    25    1
    37    13    50    1
    38    13    51    1
    39    14    17    1
    40    14    52    1
    41    14    53    1
    42    15    18    1
    43    15    54    1
    44    15    55    1
    45    16    22    1
    46    16    56    1
    47    16    57    1
    48    17    20    1
    49    17    58    1
    50    17    59    1
    51    18    21    1
    52    18    60    1
    53    18    61    1
    54    19    62    1
    55    19    63    1
    56    19    64    1
    57    20    23    1
    58    20    65    1
    59    20    66    1
    60    21    24    1
    61    21    67    1
    62    21    68    1
    63    22    26    1
    64    22    69    1
    65    22    70    1
    66    23    27    1
    67    23    71    1
    68    23    72    1
    69    24    28    1
    70    24    73    1
    71    24    74    1
    72    25    75    1
    73    25    76    1
    74    25    77    1
    75    26    29    1
    76    26    78    1
    77    26    79    1
    78    27    80    1
    79    27    81    1
    80    28    30    1
    81    28    82    1
    82    28    83    1
    83    30    84    1
    84    30    85    1
    85    30    86    1
