@<TRIPOS>MOLECULE
IMPHY001104
 37 38 0 0 0
SMALL
GASTEIGER

@<TRIPOS>ATOM
      1 O           4.2690    0.0000    0.0000 O.3     1  UNL1       -0.4487
      2 O           6.0010   -1.0000    0.0000 O.3     1  UNL1       -0.5033
      3 O           2.5369   -1.0000    0.0000 O.3     1  UNL1       -0.5033
      4 O           6.8671    3.5000    0.0000 O.3     1  UNL1       -0.4644
      5 O           6.0010   -4.0000    0.0000 O.3     1  UNL1       -0.4644
      6 O           5.1350    3.5000    0.0000 O.2     1  UNL1       -0.2450
      7 O           6.8671   -2.5000    0.0000 O.2     1  UNL1       -0.2450
      8 C           4.2690   -1.0000    0.0000 C.ar    1  UNL1        0.1705
      9 C           5.1350    0.5000    0.0000 C.ar    1  UNL1        0.1705
     10 C           5.1350   -1.5000    0.0000 C.ar    1  UNL1       -0.0017
     11 C           5.1350    1.5000    0.0000 C.ar    1  UNL1       -0.0017
     12 C           5.1350   -2.5000    0.0000 C.ar    1  UNL1        0.0627
     13 C           6.0010    2.0000    0.0000 C.ar    1  UNL1        0.0627
     14 C           3.4030   -1.5000    0.0000 C.ar    1  UNL1        0.1591
     15 C           6.0010    0.0000    0.0000 C.ar    1  UNL1        0.1591
     16 C           6.8671    1.5000    0.0000 C.ar    1  UNL1       -0.0441
     17 C           4.2690   -3.0000    0.0000 C.ar    1  UNL1       -0.0441
     18 C           6.8671    0.5000    0.0000 C.ar    1  UNL1       -0.0157
     19 C           3.4030   -2.5000    0.0000 C.ar    1  UNL1       -0.0157
     20 C           6.0010   -3.0000    0.0000 C.2     1  UNL1        0.3390
     21 C           6.0010    3.0000    0.0000 C.2     1  UNL1        0.3390
     22 C           6.8671   -4.5000    0.0000 C.3     1  UNL1        0.0820
     23 C           6.8671    4.5000    0.0000 C.3     1  UNL1        0.0820
     24 H           5.6720   -1.1900    0.0000 H       1  UNL1        0.0664
     25 H           4.5981    1.8100    0.0000 H       1  UNL1        0.0664
     26 H           4.2690   -3.6200    0.0000 H       1  UNL1        0.0627
     27 H           7.4040    1.8100    0.0000 H       1  UNL1        0.0627
     28 H           2.8660   -2.8100    0.0000 H       1  UNL1        0.0655
     29 H           7.4040    0.1900    0.0000 H       1  UNL1        0.0655
     30 H           6.5380   -1.3100    0.0000 H       1  UNL1        0.2923
     31 H           2.0000   -1.3100    0.0000 H       1  UNL1        0.2923
     32 H           6.5571   -5.0369    0.0000 H       1  UNL1        0.0661
     33 H           7.4871    4.5000    0.0000 H       1  UNL1        0.0661
     34 H           6.8671    5.1200    0.0000 H       1  UNL1        0.0661
     35 H           6.2471    4.5000    0.0000 H       1  UNL1        0.0661
     36 H           7.4040   -4.8100    0.0000 H       1  UNL1        0.0661
     37 H           7.1771   -3.9631    0.0000 H       1  UNL1        0.0661
@<TRIPOS>BOND
     1     1     8    1
     2     1     9    1
     3     2    15    1
     4     2    30    1
     5     3    14    1
     6     3    31    1
     7     4    21    1
     8     4    23    1
     9     5    20    1
    10     5    22    1
    11     6    21    2
    12     7    20    2
    13     8    10   ar
    14     8    14   ar
    15     9    11   ar
    16     9    15   ar
    17    10    12   ar
    18    10    24    1
    19    11    13   ar
    20    11    25    1
    21    12    17   ar
    22    12    20    1
    23    13    16   ar
    24    13    21    1
    25    14    19   ar
    26    15    18   ar
    27    16    18   ar
    28    16    27    1
    29    17    19   ar
    30    17    26    1
    31    18    29    1
    32    19    28    1
    33    22    32    1
    34    22    36    1
    35    22    37    1
    36    23    33    1
    37    23    34    1
    38    23    35    1
