@<TRIPOS>MOLECULE
IMPHY000559
 42 45 0 0 0
SMALL
GASTEIGER

@<TRIPOS>ATOM
      1 O           2.0520    2.5654    0.0000 O.2     1  UNL1       -0.2699
      2 O           3.8372   -3.6313    0.0000 O.3     1  UNL1       -0.4914
      3 O           5.6405   -2.5716    0.0000 O.3     1  UNL1       -0.5033
      4 N           2.9180    1.0654    0.0000 N.am    1  UNL1       -0.2898
      5 N           4.6660    4.1346    0.0000 N.ar    1  UNL1       -0.2619
      6 C           3.7841    0.5654    0.0000 C.3     1  UNL1        0.0558
      7 C           4.6501    1.0654    0.0000 C.3     1  UNL1       -0.0034
      8 C           3.8001   -0.4761    0.0000 C.ar    1  UNL1       -0.0198
      9 C           2.0080    0.5585    0.0000 C.3     1  UNL1        0.0196
     10 C           2.0000   -0.4831    0.0000 C.3     1  UNL1       -0.0114
     11 C           2.9021   -1.0039    0.0000 C.ar    1  UNL1       -0.0372
     12 C           4.6501    2.0654    0.0000 C.ar    1  UNL1       -0.0232
     13 C           2.9180    2.0654    0.0000 C.2     1  UNL1        0.2489
     14 C           3.7841    2.5654    0.0000 C.ar    1  UNL1        0.0588
     15 C           4.7520   -0.9967    0.0000 C.ar    1  UNL1       -0.0113
     16 C           2.8937   -2.0888    0.0000 C.ar    1  UNL1       -0.0128
     17 C           5.5601    2.5722    0.0000 C.ar    1  UNL1       -0.0035
     18 C           4.7688   -2.0816    0.0000 C.ar    1  UNL1        0.1588
     19 C           3.8334   -2.6313    0.0000 C.ar    1  UNL1        0.1615
     20 C           3.7680    3.6069    0.0000 C.ar    1  UNL1        0.0400
     21 C           5.5681    3.6138    0.0000 C.ar    1  UNL1        0.0350
     22 C           6.4203    2.0623    0.0000 C.2     1  UNL1       -0.0600
     23 C           7.2920    2.5522    0.0000 C.2     1  UNL1       -0.0981
     24 C           2.9731   -4.1346    0.0000 C.3     1  UNL1        0.0790
     25 H           4.5234    0.1461    0.0000 H       1  UNL1        0.0554
     26 H           4.8621    0.4828    0.0000 H       1  UNL1        0.0335
     27 H           5.2607    1.1731    0.0000 H       1  UNL1        0.0335
     28 H           1.8035    1.1438    0.0000 H       1  UNL1        0.0468
     29 H           1.3964    0.4572    0.0000 H       1  UNL1        0.0468
     30 H           1.3900   -0.3723    0.0000 H       1  UNL1        0.0328
     31 H           1.7864   -1.0651    0.0000 H       1  UNL1        0.0328
     32 H           5.2829   -0.6764    0.0000 H       1  UNL1        0.0659
     33 H           2.3556   -2.3968    0.0000 H       1  UNL1        0.0658
     34 H           3.2275    3.9107    0.0000 H       1  UNL1        0.0837
     35 H           6.1062    3.9218    0.0000 H       1  UNL1        0.0835
     36 H           6.4131    1.4423    0.0000 H       1  UNL1        0.0618
     37 H           5.6477   -3.1915    0.0000 H       1  UNL1        0.2923
     38 H           7.8253    2.2360    0.0000 H       1  UNL1        0.0535
     39 H           7.2992    3.1722    0.0000 H       1  UNL1        0.0535
     40 H           2.6610   -3.5989    0.0000 H       1  UNL1        0.0660
     41 H           2.4374   -4.4467    0.0000 H       1  UNL1        0.0660
     42 H           3.2852   -4.6704    0.0000 H       1  UNL1        0.0660
@<TRIPOS>BOND
     1     1    13    2
     2     2    19    1
     3     2    24    1
     4     3    18    1
     5     3    37    1
     6     4     6    1
     7     4     9    1
     8     4    13   am
     9     5    20   ar
    10     5    21   ar
    11     6     7    1
    12     6     8    1
    13     6    25    1
    14     7    12    1
    15     7    26    1
    16     7    27    1
    17     8    11   ar
    18     8    15   ar
    19     9    10    1
    20     9    28    1
    21     9    29    1
    22    10    11    1
    23    10    30    1
    24    10    31    1
    25    11    16   ar
    26    12    14   ar
    27    12    17   ar
    28    13    14    1
    29    14    20   ar
    30    15    18   ar
    31    15    32    1
    32    16    19   ar
    33    16    33    1
    34    17    21   ar
    35    17    22    1
    36    18    19   ar
    37    20    34    1
    38    21    35    1
    39    22    23    2
    40    22    36    1
    41    23    38    1
    42    23    39    1
    43    24    40    1
    44    24    41    1
    45    24    42    1
