@<TRIPOS>MOLECULE
IMPHY017380
 40 40 0 0 0
SMALL
GASTEIGER

@<TRIPOS>ATOM
      1 O           7.6962   -4.1830    0.0000 O.3     1  UNL1       -0.3671
      2 C           7.1962   -3.3170    0.0000 C.3     1  UNL1        0.1029
      3 C           8.1962   -3.3170    0.0000 C.3     1  UNL1        0.0785
      4 C           6.3301   -2.8170    0.0000 C.2     1  UNL1       -0.0458
      5 C           6.3301   -1.8170    0.0000 C.3     1  UNL1       -0.0261
      6 C           5.4641   -1.3170    0.0000 C.3     1  UNL1       -0.0308
      7 C           5.4641   -0.3170    0.0000 C.2     1  UNL1       -0.0847
      8 C           4.5981    0.1830    0.0000 C.2     1  UNL1       -0.0762
      9 C           4.5981    1.1830    0.0000 C.3     1  UNL1       -0.0286
     10 C           5.4641   -3.3170    0.0000 C.2     1  UNL1       -0.0969
     11 C           3.7320    1.6830    0.0000 C.3     1  UNL1       -0.0308
     12 C           3.7320   -0.3170    0.0000 C.3     1  UNL1       -0.0438
     13 C           3.7320    2.6830    0.0000 C.2     1  UNL1       -0.0850
     14 C           2.8660    3.1830    0.0000 C.2     1  UNL1       -0.0796
     15 C           2.8660    4.1830    0.0000 C.3     1  UNL1       -0.0440
     16 C           2.0000    2.6830    0.0000 C.3     1  UNL1       -0.0440
     17 H           6.7578   -3.7554    0.0000 H       1  UNL1        0.0666
     18 H           8.7788   -3.5290    0.0000 H       1  UNL1        0.0589
     19 H           8.3038   -2.7064    0.0000 H       1  UNL1        0.0589
     20 H           6.9407   -1.9246    0.0000 H       1  UNL1        0.0314
     21 H           6.5422   -1.2344    0.0000 H       1  UNL1        0.0314
     22 H           4.8535   -1.2093    0.0000 H       1  UNL1        0.0310
     23 H           5.2520   -1.8996    0.0000 H       1  UNL1        0.0310
     24 H           6.0010   -0.0070    0.0000 H       1  UNL1        0.0572
     25 H           5.2087    1.0754    0.0000 H       1  UNL1        0.0313
     26 H           4.8101    1.7656    0.0000 H       1  UNL1        0.0313
     27 H           4.9272   -3.0070    0.0000 H       1  UNL1        0.0535
     28 H           5.4641   -3.9370    0.0000 H       1  UNL1        0.0535
     29 H           3.1215    1.7907    0.0000 H       1  UNL1        0.0310
     30 H           3.5200    1.1004    0.0000 H       1  UNL1        0.0310
     31 H           3.4220    0.2199    0.0000 H       1  UNL1        0.0274
     32 H           3.1951   -0.6270    0.0000 H       1  UNL1        0.0274
     33 H           4.0420   -0.8539    0.0000 H       1  UNL1        0.0274
     34 H           4.2690    2.9930    0.0000 H       1  UNL1        0.0572
     35 H           3.4860    4.1830    0.0000 H       1  UNL1        0.0274
     36 H           2.8660    4.8030    0.0000 H       1  UNL1        0.0274
     37 H           2.2460    4.1830    0.0000 H       1  UNL1        0.0274
     38 H           1.6900    3.2200    0.0000 H       1  UNL1        0.0274
     39 H           1.4631    2.3730    0.0000 H       1  UNL1        0.0274
     40 H           2.3100    2.1461    0.0000 H       1  UNL1        0.0274
@<TRIPOS>BOND
     1     1     2    1
     2     1     3    1
     3     2     3    1
     4     2     4    1
     5     2    17    1
     6     3    18    1
     7     3    19    1
     8     4     5    1
     9     4    10    2
    10     5     6    1
    11     5    20    1
    12     5    21    1
    13     6     7    1
    14     6    22    1
    15     6    23    1
    16     7     8    2
    17     7    24    1
    18     8     9    1
    19     8    12    1
    20     9    11    1
    21     9    25    1
    22     9    26    1
    23    10    27    1
    24    10    28    1
    25    11    13    1
    26    11    29    1
    27    11    30    1
    28    12    31    1
    29    12    32    1
    30    12    33    1
    31    13    14    2
    32    13    34    1
    33    14    15    1
    34    14    16    1
    35    15    35    1
    36    15    36    1
    37    15    37    1
    38    16    38    1
    39    16    39    1
    40    16    40    1
