@<TRIPOS>MOLECULE
IMPHY000305
 47 50 0 0 0
SMALL
GASTEIGER

@<TRIPOS>ATOM
      1 O           6.1607   -0.0518    0.0000 O.3     1  UNL1       -0.3912
      2 O           2.0000   -0.2292    0.0000 O.2     1  UNL1       -0.2971
      3 N           5.0841    2.8009    0.0000 N.3     1  UNL1       -0.3050
      4 C           4.5633   -0.5379    0.0000 C.3     1  UNL1        0.0100
      5 C           3.7543    0.0498    0.0000 C.3     1  UNL1        0.0289
      6 C           4.2537   -1.4826    0.0000 C.3     1  UNL1       -0.0255
      7 C           4.0633    1.0009    0.0000 C.3     1  UNL1       -0.0258
      8 C           5.3723    0.0498    0.0000 C.3     1  UNL1       -0.0398
      9 C           5.0633    1.0009    0.0000 C.3     1  UNL1       -0.0241
     10 C           5.5521   -0.8453    0.0000 C.3     1  UNL1        0.0620
     11 C           3.2596   -1.4817    0.0000 C.3     1  UNL1        0.0096
     12 C           2.9516   -0.5365    0.0000 C.2     1  UNL1        0.1376
     13 C           4.4507   -2.4991    0.0000 C.3     1  UNL1       -0.0465
     14 C           3.5286    1.8948    0.0000 C.3     1  UNL1       -0.0364
     15 C           5.9162   -1.9508    0.0000 C.3     1  UNL1       -0.0237
     16 C           5.2885   -2.7354    0.0000 C.3     1  UNL1       -0.0413
     17 C           5.5980    1.8948    0.0000 C.3     1  UNL1        0.0017
     18 C           4.0425    2.8009    0.0000 C.3     1  UNL1       -0.0011
     19 C           5.6571   -3.6650    0.0000 C.3     1  UNL1       -0.0623
     20 C           5.5875    3.6650    0.0000 C.3     1  UNL1       -0.0128
     21 H           3.0660    0.5486    0.0000 H       1  UNL1        0.0386
     22 H           3.7125   -2.1381    0.0000 H       1  UNL1        0.0311
     23 H           3.2187    0.9055    0.0000 H       1  UNL1        0.0311
     24 H           5.6823   -0.4871    0.0000 H       1  UNL1        0.0275
     25 H           5.9387    0.3020    0.0000 H       1  UNL1        0.0275
     26 H           5.9079    0.9055    0.0000 H       1  UNL1        0.0316
     27 H           6.1634   -0.9490    0.0000 H       1  UNL1        0.0599
     28 H           2.6532   -1.6108    0.0000 H       1  UNL1        0.0345
     29 H           3.3242   -2.0983    0.0000 H       1  UNL1        0.0345
     30 H           3.8311   -2.5214    0.0000 H       1  UNL1        0.0271
     31 H           4.3768   -3.1147    0.0000 H       1  UNL1        0.0271
     32 H           3.0496    2.2885    0.0000 H       1  UNL1        0.0281
     33 H           3.0589    1.4902    0.0000 H       1  UNL1        0.0281
     34 H           6.3172   -2.4236    0.0000 H       1  UNL1        0.0293
     35 H           6.4571   -1.6477    0.0000 H       1  UNL1        0.0293
     36 H           4.8732   -3.1957    0.0000 H       1  UNL1        0.0299
     37 H           6.0678    1.4902    0.0000 H       1  UNL1        0.0429
     38 H           6.0770    2.2885    0.0000 H       1  UNL1        0.0429
     39 H           4.1486    3.4118    0.0000 H       1  UNL1        0.0426
     40 H           3.4588    3.0100    0.0000 H       1  UNL1        0.0426
     41 H           6.7754   -0.1325    0.0000 H       1  UNL1        0.2098
     42 H           5.0808   -3.8936    0.0000 H       1  UNL1        0.0232
     43 H           5.8857   -4.2414    0.0000 H       1  UNL1        0.0232
     44 H           6.2335   -3.4365    0.0000 H       1  UNL1        0.0232
     45 H           6.1232    3.3529    0.0000 H       1  UNL1        0.0391
     46 H           5.8995    4.2007    0.0000 H       1  UNL1        0.0391
     47 H           5.0517    3.9771    0.0000 H       1  UNL1        0.0391
@<TRIPOS>BOND
     1    10     1    1
     2     1    41    1
     3     2    12    2
     4     3    17    1
     5     3    18    1
     6     3    20    1
     7     4     5    1
     8     4     6    1
     9     4     8    1
    10     4    10    1
    11     5     7    1
    12     5    12    1
    13     5    21    1
    14     6    11    1
    15     6    13    1
    16     6    22    1
    17     7     9    1
    18     7    14    1
    19     7    23    1
    20     8     9    1
    21     8    24    1
    22     8    25    1
    23     9    17    1
    24     9    26    1
    25    10    15    1
    26    10    27    1
    27    11    12    1
    28    11    28    1
    29    11    29    1
    30    13    16    1
    31    13    30    1
    32    13    31    1
    33    14    18    1
    34    14    32    1
    35    14    33    1
    36    15    16    1
    37    15    34    1
    38    15    35    1
    39    16    19    1
    40    16    36    1
    41    17    37    1
    42    17    38    1
    43    18    39    1
    44    18    40    1
    45    19    42    1
    46    19    43    1
    47    19    44    1
    48    20    45    1
    49    20    46    1
    50    20    47    1
