@<TRIPOS>MOLECULE
IMPHY002397
 180 189 0 0 0
SMALL
GASTEIGER

@<TRIPOS>ATOM
      1 O          14.3523    2.6557    0.0000 O.3     1  UNL1       -0.3448
      2 O          12.8233    3.8876    0.0000 O.3     1  UNL1       -0.3515
      3 O          12.9292   -5.5884    0.0000 O.3     1  UNL1       -0.3451
      4 O          11.1972   -5.5884    0.0000 O.3     1  UNL1       -0.3405
      5 O          16.9869    5.7550    0.0000 O.3     1  UNL1       -0.3484
      6 O          12.9292   -7.5884    0.0000 O.3     1  UNL1       -0.3378
      7 O          11.1972   -8.5884    0.0000 O.3     1  UNL1       -0.3864
      8 O           9.4651   -7.5884    0.0000 O.3     1  UNL1       -0.3401
      9 O          18.4843    6.6255    0.0000 O.3     1  UNL1       -0.3405
     10 O          13.7953   -6.0884    0.0000 O.3     1  UNL1       -0.3431
     11 O           9.4651   -4.5884    0.0000 O.3     1  UNL1       -0.3924
     12 O          17.9920    4.0260    0.0000 O.3     1  UNL1       -0.3841
     13 O           8.5991   -6.0884    0.0000 O.3     1  UNL1       -0.3431
     14 O          14.6613   -8.5884    0.0000 O.3     1  UNL1       -0.3841
     15 O          19.9920    4.0319    0.0000 O.3     1  UNL1       -0.3864
     16 O          20.9868    5.7670    0.0000 O.3     1  UNL1       -0.3865
     17 O          16.3933   -7.5884    0.0000 O.3     1  UNL1       -0.3864
     18 O           7.7331   -8.5884    0.0000 O.3     1  UNL1       -0.3841
     19 O          16.3933   -5.5884    0.0000 O.3     1  UNL1       -0.3866
     20 O          19.4791    8.3605    0.0000 O.3     1  UNL1       -0.3924
     21 O           6.0010   -7.5884    0.0000 O.3     1  UNL1       -0.3864
     22 O           6.0010   -5.5884    0.0000 O.3     1  UNL1       -0.3402
     23 O           5.1350   -7.0884    0.0000 O.3     1  UNL1       -0.3431
     24 O           4.2690   -4.5884    0.0000 O.3     1  UNL1       -0.3841
     25 O           2.5369   -5.5884    0.0000 O.3     1  UNL1       -0.3864
     26 O           2.5369   -7.5884    0.0000 O.3     1  UNL1       -0.3866
     27 C          12.9585    0.6085    0.0000 C.3     1  UNL1       -0.0233
     28 C          13.8264    0.1118    0.0000 C.3     1  UNL1       -0.0295
     29 C          13.1640    1.5811    0.0000 C.3     1  UNL1       -0.0015
     30 C          13.8303   -0.8882    0.0000 C.3     1  UNL1       -0.0306
     31 C          14.1523    1.6880    0.0000 C.3     1  UNL1        0.0660
     32 C          12.9662   -1.3915    0.0000 C.3     1  UNL1       -0.0285
     33 C          14.5609    0.7817    0.0000 C.3     1  UNL1       -0.0226
     34 C          12.0944    0.1051    0.0000 C.3     1  UNL1       -0.0467
     35 C          12.7617    2.4837    0.0000 C.3     1  UNL1        0.0160
     36 C          12.0983   -0.8949    0.0000 C.3     1  UNL1       -0.0486
     37 C          12.9542   -2.4331    0.0000 C.3     1  UNL1       -0.0078
     38 C          13.4946    3.1465    0.0000 C.3     1  UNL1        0.1728
     39 C          12.0906    1.1051    0.0000 C.3     1  UNL1       -0.0590
     40 C          14.7422   -1.3915    0.0000 C.3     1  UNL1       -0.0311
     41 C          13.8542   -2.9574    0.0000 C.2     1  UNL1       -0.0648
     42 C          12.0043   -2.9574    0.0000 C.3     1  UNL1       -0.0413
     43 C          14.7543   -2.4331    0.0000 C.2     1  UNL1       -0.0839
     44 C          11.7833    2.6904    0.0000 C.3     1  UNL1       -0.0572
     45 C          12.0901   -1.9297    0.0000 C.3     1  UNL1       -0.0556
     46 C          13.9920    4.0140    0.0000 C.3     1  UNL1        0.0020
     47 C          13.8668   -4.0423    0.0000 C.3     1  UNL1       -0.0047
     48 C          11.9917   -4.0423    0.0000 C.3     1  UNL1       -0.0254
     49 C          12.9292   -4.5884    0.0000 C.3     1  UNL1        0.0655
     50 C          14.9920    4.0170    0.0000 C.3     1  UNL1       -0.0435
     51 C          13.1295    4.8396    0.0000 C.3     1  UNL1        0.0397
     52 C          15.4894    4.8845    0.0000 C.3     1  UNL1       -0.0201
     53 C          12.0632   -6.0884    0.0000 C.3     1  UNL1        0.1886
     54 C          16.4894    4.8875    0.0000 C.3     1  UNL1        0.0533
     55 C          14.9869    5.7490    0.0000 C.3     1  UNL1       -0.0603
     56 C          12.0632   -7.0884    0.0000 C.3     1  UNL1        0.1406
     57 C          11.1972   -7.5884    0.0000 C.3     1  UNL1        0.1148
     58 C          10.3312   -6.0884    0.0000 C.3     1  UNL1        0.1134
     59 C          10.3312   -7.0884    0.0000 C.3     1  UNL1        0.1184
     60 C          17.9868    5.7580    0.0000 C.3     1  UNL1        0.1879
     61 C           9.4651   -5.5884    0.0000 C.3     1  UNL1        0.0730
     62 C          13.7953   -7.0884    0.0000 C.3     1  UNL1        0.1884
     63 C          18.4894    4.8935    0.0000 C.3     1  UNL1        0.1341
     64 C          14.6613   -7.5884    0.0000 C.3     1  UNL1        0.1341
     65 C          19.4894    4.8965    0.0000 C.3     1  UNL1        0.1141
     66 C           8.5991   -7.0884    0.0000 C.3     1  UNL1        0.1883
     67 C          19.4843    6.6285    0.0000 C.3     1  UNL1        0.1130
     68 C          19.9868    5.7640    0.0000 C.3     1  UNL1        0.1119
     69 C          15.5273   -7.0884    0.0000 C.3     1  UNL1        0.1140
     70 C          14.6613   -5.5884    0.0000 C.3     1  UNL1        0.0873
     71 C           7.7331   -7.5884    0.0000 C.3     1  UNL1        0.1341
     72 C          15.5273   -6.0884    0.0000 C.3     1  UNL1        0.1095
     73 C          19.9817    7.4960    0.0000 C.3     1  UNL1        0.0730
     74 C           6.8671   -7.0884    0.0000 C.3     1  UNL1        0.1143
     75 C           7.7331   -5.5884    0.0000 C.3     1  UNL1        0.0877
     76 C           6.8671   -6.0884    0.0000 C.3     1  UNL1        0.1160
     77 C          14.6613   -4.5884    0.0000 C.3     1  UNL1       -0.0361
     78 C           7.7331   -4.5884    0.0000 C.3     1  UNL1       -0.0361
     79 C           5.1350   -6.0884    0.0000 C.3     1  UNL1        0.1883
     80 C           4.2690   -5.5884    0.0000 C.3     1  UNL1        0.1341
     81 C           3.4030   -6.0884    0.0000 C.3     1  UNL1        0.1140
     82 C           4.2690   -7.5884    0.0000 C.3     1  UNL1        0.0873
     83 C           3.4030   -7.0884    0.0000 C.3     1  UNL1        0.1095
     84 C           4.2690   -8.5884    0.0000 C.3     1  UNL1       -0.0361
     85 H          14.6047   -0.2299    0.0000 H       1  UNL1        0.0310
     86 H          12.3187    1.4915    0.0000 H       1  UNL1        0.0335
     87 H          14.5615   -0.4547    0.0000 H       1  UNL1        0.0310
     88 H          14.9972    1.7812    0.0000 H       1  UNL1        0.0600
     89 H          13.7007   -1.8194    0.0000 H       1  UNL1        0.0312
     90 H          14.9283    0.2823    0.0000 H       1  UNL1        0.0293
     91 H          15.0962    1.0946    0.0000 H       1  UNL1        0.0293
     92 H          11.8801    0.6869    0.0000 H       1  UNL1        0.0271
     93 H          11.4842   -0.0049    0.0000 H       1  UNL1        0.0271
     94 H          12.3719    2.0015    0.0000 H       1  UNL1        0.0354
     95 H          11.4873   -0.7895    0.0000 H       1  UNL1        0.0268
     96 H          11.8885   -1.4783    0.0000 H       1  UNL1        0.0268
     97 H          12.3985    1.6433    0.0000 H       1  UNL1        0.0235
     98 H          11.5524    1.4131    0.0000 H       1  UNL1        0.0235
     99 H          11.7826    0.5670    0.0000 H       1  UNL1        0.0235
    100 H          15.3543   -1.4905    0.0000 H       1  UNL1        0.0310
    101 H          14.9445   -0.8054    0.0000 H       1  UNL1        0.0310
    102 H          11.8020   -2.3713    0.0000 H       1  UNL1        0.0274
    103 H          11.3922   -3.0564    0.0000 H       1  UNL1        0.0274
    104 H          15.2936   -2.7389    0.0000 H       1  UNL1        0.0572
    105 H          11.9114    3.2970    0.0000 H       1  UNL1        0.0234
    106 H          11.1766    2.8185    0.0000 H       1  UNL1        0.0234
    107 H          11.6551    2.0838    0.0000 H       1  UNL1        0.0234
    108 H          12.4021   -1.3940    0.0000 H       1  UNL1        0.0238
    109 H          11.5543   -1.6177    0.0000 H       1  UNL1        0.0238
    110 H          11.7780   -2.4655    0.0000 H       1  UNL1        0.0238
    111 H          14.0979    4.6249    0.0000 H       1  UNL1        0.0317
    112 H          13.4088    4.2243    0.0000 H       1  UNL1        0.0317
    113 H          14.0826   -4.6235    0.0000 H       1  UNL1        0.0335
    114 H          14.4764   -3.9291    0.0000 H       1  UNL1        0.0335
    115 H          11.3821   -3.9291    0.0000 H       1  UNL1        0.0290
    116 H          11.7759   -4.6235    0.0000 H       1  UNL1        0.0290
    117 H          12.3917   -4.8974    0.0000 H       1  UNL1        0.0600
    118 H          14.8862    3.4061    0.0000 H       1  UNL1        0.0270
    119 H          15.5753    3.8067    0.0000 H       1  UNL1        0.0270
    120 H          13.7197    4.6498    0.0000 H       1  UNL1        0.0525
    121 H          13.3193    5.4298    0.0000 H       1  UNL1        0.0525
    122 H          12.5392    5.0294    0.0000 H       1  UNL1        0.0525
    123 H          14.8694    4.8826    0.0000 H       1  UNL1        0.0320
    124 H          12.0632   -5.4684    0.0000 H       1  UNL1        0.0938
    125 H          16.3836    4.2766    0.0000 H       1  UNL1        0.0563
    126 H          17.0727    4.6772    0.0000 H       1  UNL1        0.0563
    127 H          15.5229    6.0606    0.0000 H       1  UNL1        0.0233
    128 H          14.6753    6.2850    0.0000 H       1  UNL1        0.0233
    129 H          14.4509    5.4374    0.0000 H       1  UNL1        0.0233
    130 H          12.0632   -7.7084    0.0000 H       1  UNL1        0.0675
    131 H          10.6603   -7.8984    0.0000 H       1  UNL1        0.0648
    132 H          10.3312   -5.4684    0.0000 H       1  UNL1        0.0647
    133 H           9.7942   -6.7784    0.0000 H       1  UNL1        0.0651
    134 H          17.6752    6.2940    0.0000 H       1  UNL1        0.0937
    135 H           8.8546   -5.4807    0.0000 H       1  UNL1        0.0584
    136 H           9.2531   -6.1710    0.0000 H       1  UNL1        0.0584
    137 H          13.2583   -6.7784    0.0000 H       1  UNL1        0.0938
    138 H          10.6603   -8.8984    0.0000 H       1  UNL1        0.2100
    139 H          17.8694    4.8916    0.0000 H       1  UNL1        0.0671
    140 H          14.1244   -7.8984    0.0000 H       1  UNL1        0.0671
    141 H          19.1810    4.3586    0.0000 H       1  UNL1        0.0648
    142 H           8.5991   -7.7084    0.0000 H       1  UNL1        0.0938
    143 H          19.1726    7.1645    0.0000 H       1  UNL1        0.0647
    144 H          20.2984    5.2280    0.0000 H       1  UNL1        0.0647
    145 H           8.9282   -4.2784    0.0000 H       1  UNL1        0.2095
    146 H          15.5273   -7.7084    0.0000 H       1  UNL1        0.0648
    147 H          14.1244   -5.2784    0.0000 H       1  UNL1        0.0621
    148 H           7.1962   -7.8984    0.0000 H       1  UNL1        0.0671
    149 H          15.5273   -5.4684    0.0000 H       1  UNL1        0.0646
    150 H          18.3036    3.4899    0.0000 H       1  UNL1        0.2101
    151 H          20.4578    7.0989    0.0000 H       1  UNL1        0.0584
    152 H          20.4554    7.8960    0.0000 H       1  UNL1        0.0584
    153 H           6.3301   -6.7784    0.0000 H       1  UNL1        0.0648
    154 H          15.1982   -8.8984    0.0000 H       1  UNL1        0.2101
    155 H          20.6120    4.0338    0.0000 H       1  UNL1        0.2100
    156 H           8.2700   -5.2784    0.0000 H       1  UNL1        0.0621
    157 H           6.8671   -5.4684    0.0000 H       1  UNL1        0.0650
    158 H          15.2813   -4.5884    0.0000 H       1  UNL1        0.0255
    159 H          14.6613   -3.9684    0.0000 H       1  UNL1        0.0255
    160 H          14.0413   -4.5884    0.0000 H       1  UNL1        0.0255
    161 H          21.2952    6.3048    0.0000 H       1  UNL1        0.2100
    162 H          16.9303   -7.2784    0.0000 H       1  UNL1        0.2100
    163 H           8.2700   -8.8984    0.0000 H       1  UNL1        0.2101
    164 H          16.9303   -5.8984    0.0000 H       1  UNL1        0.2100
    165 H           8.3531   -4.5884    0.0000 H       1  UNL1        0.0255
    166 H           7.7331   -3.9684    0.0000 H       1  UNL1        0.0255
    167 H           7.1131   -4.5884    0.0000 H       1  UNL1        0.0255
    168 H          19.7875    8.8984    0.0000 H       1  UNL1        0.2095
    169 H           6.0010   -8.2084    0.0000 H       1  UNL1        0.2100
    170 H           5.1350   -5.4684    0.0000 H       1  UNL1        0.0938
    171 H           3.7320   -5.2784    0.0000 H       1  UNL1        0.0671
    172 H           3.9650   -5.4684    0.0000 H       1  UNL1        0.0648
    173 H           4.8059   -7.8984    0.0000 H       1  UNL1        0.0621
    174 H           3.4030   -7.7084    0.0000 H       1  UNL1        0.0646
    175 H           3.7320   -4.2784    0.0000 H       1  UNL1        0.2101
    176 H           3.6490   -8.5884    0.0000 H       1  UNL1        0.0255
    177 H           4.2690   -9.2084    0.0000 H       1  UNL1        0.0255
    178 H           4.8890   -8.5884    0.0000 H       1  UNL1        0.0255
    179 H           2.0000   -5.8984    0.0000 H       1  UNL1        0.2100
    180 H           2.5369   -8.2084    0.0000 H       1  UNL1        0.2100
@<TRIPOS>BOND
     1     1    31    1
     2     1    38    1
     3     2    38    1
     4     2    51    1
     5    49     3    1
     6    53     3    1
     7     4    53    1
     8     4    58    1
     9     5    54    1
    10    60     5    1
    11    56     6    1
    12    62     6    1
    13    57     7    1
    14     7   138    1
    15    59     8    1
    16    66     8    1
    17     9    60    1
    18     9    67    1
    19    10    62    1
    20    10    70    1
    21    11    61    1
    22    11   145    1
    23    63    12    1
    24    12   150    1
    25    13    66    1
    26    13    75    1
    27    64    14    1
    28    14   154    1
    29    65    15    1
    30    15   155    1
    31    68    16    1
    32    16   161    1
    33    69    17    1
    34    17   162    1
    35    71    18    1
    36    18   163    1
    37    72    19    1
    38    19   164    1
    39    20    73    1
    40    20   168    1
    41    74    21    1
    42    21   169    1
    43    76    22    1
    44    79    22    1
    45    23    79    1
    46    23    82    1
    47    80    24    1
    48    24   175    1
    49    81    25    1
    50    25   179    1
    51    83    26    1
    52    26   180    1
    53    27    28    1
    54    27    29    1
    55    27    34    1
    56    27    39    1
    57    28    30    1
    58    28    33    1
    59    28    85    1
    60    29    31    1
    61    29    35    1
    62    29    86    1
    63    30    32    1
    64    30    40    1
    65    30    87    1
    66    31    33    1
    67    31    88    1
    68    32    36    1
    69    32    37    1
    70    32    89    1
    71    33    90    1
    72    33    91    1
    73    34    36    1
    74    34    92    1
    75    34    93    1
    76    35    38    1
    77    35    44    1
    78    35    94    1
    79    36    95    1
    80    36    96    1
    81    37    41    1
    82    37    42    1
    83    37    45    1
    84    38    46    1
    85    39    97    1
    86    39    98    1
    87    39    99    1
    88    40    43    1
    89    40   100    1
    90    40   101    1
    91    41    43    2
    92    41    47    1
    93    42    48    1
    94    42   102    1
    95    42   103    1
    96    43   104    1
    97    44   105    1
    98    44   106    1
    99    44   107    1
   100    45   108    1
   101    45   109    1
   102    45   110    1
   103    46    50    1
   104    46   111    1
   105    46   112    1
   106    47    49    1
   107    47   113    1
   108    47   114    1
   109    48    49    1
   110    48   115    1
   111    48   116    1
   112    49   117    1
   113    50    52    1
   114    50   118    1
   115    50   119    1
   116    51   120    1
   117    51   121    1
   118    51   122    1
   119    52    54    1
   120    52    55    1
   121    52   123    1
   122    53    56    1
   123    53   124    1
   124    54   125    1
   125    54   126    1
   126    55   127    1
   127    55   128    1
   128    55   129    1
   129    56    57    1
   130    56   130    1
   131    57    59    1
   132    57   131    1
   133    58    59    1
   134    58    61    1
   135    58   132    1
   136    59   133    1
   137    60    63    1
   138    60   134    1
   139    61   135    1
   140    61   136    1
   141    62    64    1
   142    62   137    1
   143    63    65    1
   144    63   139    1
   145    64    69    1
   146    64   140    1
   147    65    68    1
   148    65   141    1
   149    66    71    1
   150    66   142    1
   151    67    68    1
   152    67    73    1
   153    67   143    1
   154    68   144    1
   155    69    72    1
   156    69   146    1
   157    70    72    1
   158    70    77    1
   159    70   147    1
   160    71    74    1
   161    71   148    1
   162    72   149    1
   163    73   151    1
   164    73   152    1
   165    74    76    1
   166    74   153    1
   167    75    76    1
   168    75    78    1
   169    75   156    1
   170    76   157    1
   171    77   158    1
   172    77   159    1
   173    77   160    1
   174    78   165    1
   175    78   166    1
   176    78   167    1
   177    79    80    1
   178    79   170    1
   179    80    81    1
   180    80   171    1
   181    81    83    1
   182    81   172    1
   183    82    83    1
   184    82    84    1
   185    82   173    1
   186    83   174    1
   187    84   176    1
   188    84   177    1
   189    84   178    1
