@<TRIPOS>MOLECULE
IMPHY000346
 48 52 0 0 0
SMALL
GASTEIGER

@<TRIPOS>ATOM
      1 O           5.8425   -1.9573    0.0000 O.3     1  UNL1       -0.3680
      2 O           3.2330   -1.9545    0.0000 O.3     1  UNL1       -0.4555
      3 O           3.3801   -0.4345    0.0000 O.3     1  UNL1       -0.3877
      4 O           3.6104    0.5815    0.0000 O.2     1  UNL1       -0.2967
      5 O           7.9787    1.0784    0.0000 O.3     1  UNL1       -0.3834
      6 O           2.7094   -0.4511    0.0000 O.2     1  UNL1       -0.2504
      7 O           7.9944    3.1266    0.0000 O.2     1  UNL1       -0.2899
      8 C           5.3425   -0.4185    0.0000 C.3     1  UNL1        0.0737
      9 C           6.2085    0.0815    0.0000 C.3     1  UNL1        0.0126
     10 C           4.5334   -1.0063    0.0000 C.3     1  UNL1        0.1033
     11 C           4.8425   -1.9573    0.0000 C.3     1  UNL1        0.1197
     12 C           6.2085    1.0815    0.0000 C.3     1  UNL1        0.0143
     13 C           4.0367   -2.5395    0.0000 C.3     1  UNL1        0.1583
     14 C           4.3660   -0.6021    0.0000 C.3     1  UNL1        0.0992
     15 C           6.1515   -1.0063    0.0000 C.3     1  UNL1        0.0621
     16 C           5.3425    1.5815    0.0000 C.3     1  UNL1       -0.0046
     17 C           4.4764    0.0815    0.0000 C.2     1  UNL1        0.1435
     18 C           4.4764    1.0815    0.0000 C.3     1  UNL1        0.0136
     19 C           3.5394   -1.0088    0.0000 C.2     1  UNL1        0.3146
     20 C           7.1185    1.5884    0.0000 C.3     1  UNL1        0.1232
     21 C           5.1515   -2.9084    0.0000 C.3     1  UNL1       -0.0314
     22 C           7.0745    0.5815    0.0000 C.3     1  UNL1       -0.0559
     23 C           5.3264    2.6230    0.0000 C.2     1  UNL1       -0.0651
     24 C           7.1265    2.6300    0.0000 C.2     1  UNL1        0.1848
     25 C           6.2244    3.1508    0.0000 C.2     1  UNL1       -0.0173
     26 C           4.4546    3.1130    0.0000 C.3     1  UNL1       -0.0431
     27 H           6.9446   -0.3435    0.0000 H       1  UNL1        0.0344
     28 H           5.3649   -1.1830    0.0000 H       1  UNL1        0.0454
     29 H           3.8943   -3.3775    0.0000 H       1  UNL1        0.0790
     30 H           3.9645   -0.1296    0.0000 H       1  UNL1        0.0634
     31 H           6.4615   -0.4693    0.0000 H       1  UNL1        0.0570
     32 H           6.7179   -1.2584    0.0000 H       1  UNL1        0.0570
     33 H           4.6031    2.0008    0.0000 H       1  UNL1        0.0356
     34 H           3.8658    0.9739    0.0000 H       1  UNL1        0.0348
     35 H           4.2644    1.6641    0.0000 H       1  UNL1        0.0348
     36 H           7.6584    1.8932    0.0000 H       1  UNL1        0.0682
     37 H           5.7411   -2.7168    0.0000 H       1  UNL1        0.0259
     38 H           5.3431   -3.4980    0.0000 H       1  UNL1        0.0259
     39 H           4.5618   -3.1000    0.0000 H       1  UNL1        0.0259
     40 H           7.3845    1.1184    0.0000 H       1  UNL1        0.0236
     41 H           7.6114    0.2715    0.0000 H       1  UNL1        0.0236
     42 H           6.7645    0.0446    0.0000 H       1  UNL1        0.0236
     43 H           3.1644    0.1467    0.0000 H       1  UNL1        0.2100
     44 H           6.2220    3.7708    0.0000 H       1  UNL1        0.0653
     45 H           8.5192    1.3822    0.0000 H       1  UNL1        0.2104
     46 H           4.1509    2.5725    0.0000 H       1  UNL1        0.0275
     47 H           3.9142    3.4168    0.0000 H       1  UNL1        0.0275
     48 H           4.7584    3.6535    0.0000 H       1  UNL1        0.0275
@<TRIPOS>BOND
     1     1    11    1
     2     1    15    1
     3     2    13    1
     4     2    19    1
     5    14     3    1
     6     3    43    1
     7     4    17    2
     8    20     5    1
     9     5    45    1
    10     6    19    2
    11     7    24    2
    12     8     9    1
    13     8    10    1
    14     8    15    1
    15     8    17    1
    16     9    12    1
    17     9    14    1
    18     9    27    1
    19    10    11    1
    20    10    19    1
    21    10    28    1
    22    11    13    1
    23    11    21    1
    24    12    16    1
    25    12    20    1
    26    12    22    1
    27    13    14    1
    28    13    29    1
    29    14    30    1
    30    15    31    1
    31    15    32    1
    32    16    18    1
    33    16    23    1
    34    16    33    1
    35    17    18    1
    36    18    34    1
    37    18    35    1
    38    20    24    1
    39    20    36    1
    40    21    37    1
    41    21    38    1
    42    21    39    1
    43    22    40    1
    44    22    41    1
    45    22    42    1
    46    23    25    2
    47    23    26    1
    48    24    25    1
    49    25    44    1
    50    26    46    1
    51    26    47    1
    52    26    48    1
