@<TRIPOS>MOLECULE
IMPHY000801
 67 69 0 0 0
SMALL
GASTEIGER

@<TRIPOS>ATOM
      1 O           6.2177   -3.2623    0.0000 O.3     1  UNL1       -0.3400
      2 O           4.4381   -3.3555    0.0000 O.3     1  UNL1       -0.3457
      3 O           6.2177   -0.2623    0.0000 O.3     1  UNL1       -0.3313
      4 O           4.4769   -5.9429    0.0000 O.3     1  UNL1       -0.3812
      5 O           5.9903   -5.4259    0.0000 O.3     1  UNL1       -0.3837
      6 O           4.4856   -2.2623    0.0000 O.3     1  UNL1       -0.3865
      7 O           7.9497   -2.2623    0.0000 O.3     1  UNL1       -0.3829
      8 O           7.9497   -0.2623    0.0000 O.3     1  UNL1       -0.4535
      9 O           2.5369   -4.9647    0.0000 O.3     1  UNL1       -0.3920
     10 O           4.4856    0.7377    0.0000 O.3     1  UNL1       -0.3924
     11 O           9.6818    0.7377    0.0000 O.3     1  UNL1       -0.4913
     12 O           6.2177    0.7377    0.0000 O.3     1  UNL1       -0.4913
     13 O           9.6818    5.7377    0.0000 O.3     1  UNL1       -0.3910
     14 C           6.2177   -2.2623    0.0000 C.3     1  UNL1        0.1217
     15 C           4.2690   -4.9647    0.0000 C.3     1  UNL1        0.1425
     16 C           5.2471   -4.7568    0.0000 C.3     1  UNL1        0.1387
     17 C           5.3517   -1.7623    0.0000 C.3     1  UNL1        0.1123
     18 C           5.3517   -3.7623    0.0000 C.3     1  UNL1        0.1884
     19 C           7.0837   -1.7623    0.0000 C.3     1  UNL1        0.1458
     20 C           5.3517   -0.7623    0.0000 C.3     1  UNL1        0.1140
     21 C           3.7690   -4.0987    0.0000 C.3     1  UNL1        0.0843
     22 C           7.0837   -0.7623    0.0000 C.3     1  UNL1        0.2311
     23 C           3.4030   -5.4647    0.0000 C.3     1  UNL1        0.0778
     24 C           4.4856   -0.2623    0.0000 C.3     1  UNL1        0.0731
     25 C           7.9497    0.7377    0.0000 C.ar    1  UNL1        0.2067
     26 C           8.8158    1.2377    0.0000 C.ar    1  UNL1        0.1658
     27 C           7.0837    1.2377    0.0000 C.ar    1  UNL1        0.1658
     28 C           8.8158    2.2377    0.0000 C.ar    1  UNL1       -0.0089
     29 C           7.0837    2.2377    0.0000 C.ar    1  UNL1       -0.0089
     30 C           7.9497    2.7377    0.0000 C.ar    1  UNL1       -0.0181
     31 C           7.9497    3.7377    0.0000 C.2     1  UNL1       -0.0562
     32 C          10.5478    1.2377    0.0000 C.3     1  UNL1        0.0790
     33 C           5.3517    1.2377    0.0000 C.3     1  UNL1        0.0790
     34 C           8.8158    4.2377    0.0000 C.2     1  UNL1       -0.0584
     35 C           8.8158    5.2377    0.0000 C.3     1  UNL1        0.0627
     36 H           5.6808   -2.5723    0.0000 H       1  UNL1        0.0652
     37 H           5.8260   -4.5346    0.0000 H       1  UNL1        0.0675
     38 H           4.8147   -1.4523    0.0000 H       1  UNL1        0.0647
     39 H           5.8716   -4.1000    0.0000 H       1  UNL1        0.0938
     40 H           7.6206   -1.4523    0.0000 H       1  UNL1        0.0683
     41 H           5.3517   -0.1423    0.0000 H       1  UNL1        0.0647
     42 H           3.3541   -3.6379    0.0000 H       1  UNL1        0.0591
     43 H           3.2674   -4.4631    0.0000 H       1  UNL1        0.0591
     44 H           7.0837   -0.1423    0.0000 H       1  UNL1        0.1084
     45 H           3.0044   -5.9397    0.0000 H       1  UNL1        0.0587
     46 H           3.8015   -5.9397    0.0000 H       1  UNL1        0.0587
     47 H           3.8751   -0.1546    0.0000 H       1  UNL1        0.0584
     48 H           4.2736   -0.8449    0.0000 H       1  UNL1        0.0584
     49 H           4.0162   -6.3577    0.0000 H       1  UNL1        0.2105
     50 H           6.5799   -5.2343    0.0000 H       1  UNL1        0.2101
     51 H           3.9487   -1.9523    0.0000 H       1  UNL1        0.2100
     52 H           8.4867   -1.9523    0.0000 H       1  UNL1        0.2102
     53 H           2.0000   -5.2747    0.0000 H       1  UNL1        0.2095
     54 H           3.9487    1.0477    0.0000 H       1  UNL1        0.2095
     55 H           9.3527    2.5477    0.0000 H       1  UNL1        0.0661
     56 H           6.5468    2.5477    0.0000 H       1  UNL1        0.0661
     57 H           7.4128    4.0477    0.0000 H       1  UNL1        0.0621
     58 H          10.8578    0.7008    0.0000 H       1  UNL1        0.0660
     59 H          11.0848    1.5477    0.0000 H       1  UNL1        0.0660
     60 H          10.2378    1.7747    0.0000 H       1  UNL1        0.0660
     61 H           5.6617    1.7747    0.0000 H       1  UNL1        0.0660
     62 H           4.8147    1.5477    0.0000 H       1  UNL1        0.0660
     63 H           5.0417    0.7008    0.0000 H       1  UNL1        0.0660
     64 H           9.3527    3.9277    0.0000 H       1  UNL1        0.0595
     65 H           8.6037    5.8203    0.0000 H       1  UNL1        0.0601
     66 H           8.2052    5.1301    0.0000 H       1  UNL1        0.0601
     67 H           9.6818    6.3577    0.0000 H       1  UNL1        0.2098
@<TRIPOS>BOND
     1    14     1    1
     2    18     1    1
     3     2    18    1
     4     2    21    1
     5     3    20    1
     6     3    22    1
     7    15     4    1
     8     4    49    1
     9    16     5    1
    10     5    50    1
    11    17     6    1
    12     6    51    1
    13    19     7    1
    14     7    52    1
    15    22     8    1
    16     8    25    1
    17     9    23    1
    18     9    53    1
    19    10    24    1
    20    10    54    1
    21    11    26    1
    22    11    32    1
    23    12    27    1
    24    12    33    1
    25    13    35    1
    26    13    67    1
    27    14    17    1
    28    14    19    1
    29    14    36    1
    30    15    16    1
    31    15    21    1
    32    15    23    1
    33    16    18    1
    34    16    37    1
    35    17    20    1
    36    17    38    1
    37    18    39    1
    38    19    22    1
    39    19    40    1
    40    20    24    1
    41    20    41    1
    42    21    42    1
    43    21    43    1
    44    22    44    1
    45    23    45    1
    46    23    46    1
    47    24    47    1
    48    24    48    1
    49    25    26   ar
    50    25    27   ar
    51    26    28   ar
    52    27    29   ar
    53    28    30   ar
    54    28    55    1
    55    29    30   ar
    56    29    56    1
    57    30    31    1
    58    31    34    2
    59    31    57    1
    60    32    58    1
    61    32    59    1
    62    32    60    1
    63    33    61    1
    64    33    62    1
    65    33    63    1
    66    34    35    1
    67    34    64    1
    68    35    65    1
    69    35    66    1
