@<TRIPOS>MOLECULE
IMPHY002012
 60 63 0 0 0
SMALL
GASTEIGER

@<TRIPOS>ATOM
      1 O           5.5568   -2.5894    0.0000 O.3     1  UNL1       -0.4907
      2 O           5.9140    0.7149    0.0000 O.3     1  UNL1       -0.4568
      3 O           3.2892    0.3831    0.0000 O.3     1  UNL1       -0.4551
      4 O           7.3530    0.2569    0.0000 O.2     1  UNL1       -0.4541
      5 O           9.1011   -2.7846    0.0000 O.3     1  UNL1       -0.4942
      6 O          10.0053   -1.2878    0.0000 O.2     1  UNL1       -0.2869
      7 O           4.6249    1.8717    0.0000 O.2     1  UNL1       -0.2512
      8 O           3.6464    2.0779    0.0000 O.2     1  UNL1       -0.2511
      9 C           5.5568   -0.9799    0.0000 C.3     1  UNL1        0.0660
     10 C           5.2462   -0.0294    0.0000 C.3     1  UNL1        0.1520
     11 C           4.2677    0.1769    0.0000 C.3     1  UNL1        0.1452
     12 C           6.5031   -1.2846    0.0000 C.ar    1  UNL1        0.0473
     13 C           4.9732   -1.7846    0.0000 C.3     1  UNL1        0.1001
     14 C           6.5031   -2.2846    0.0000 C.ar    1  UNL1        0.1312
     15 C           7.3691   -0.7846    0.0000 C.ar    1  UNL1        0.1499
     16 C           4.4739    1.1554    0.0000 C.3     1  UNL1       -0.0215
     17 C           4.0615   -0.8017    0.0000 C.3     1  UNL1       -0.0215
     18 C           8.2351   -1.2846    0.0000 C.ar    1  UNL1        0.1060
     19 C           7.3691   -2.7846    0.0000 C.ar    1  UNL1        0.0230
     20 C           8.2351   -2.2846    0.0000 C.ar    1  UNL1        0.1379
     21 C           9.1451   -0.7778    0.0000 C.ar    1  UNL1        0.1966
     22 C           5.6034    1.6655    0.0000 C.2     1  UNL1        0.3043
     23 C           8.2511    0.7846    0.0000 C.ar    1  UNL1        0.1392
     24 C           2.9785    1.3336    0.0000 C.2     1  UNL1        0.3046
     25 C           9.1531    0.2638    0.0000 C.ar    1  UNL1        0.0288
     26 C           6.2712    2.4098    0.0000 C.3     1  UNL1        0.0332
     27 C           8.2472    1.7846    0.0000 C.ar    1  UNL1        0.0174
     28 C           2.0000    1.5398    0.0000 C.3     1  UNL1        0.0333
     29 C           9.1011   -3.7846    0.0000 C.3     1  UNL1        0.0788
     30 C           9.1113    2.2880    0.0000 C.ar    1  UNL1       -0.0511
     31 C           7.3793    2.2813    0.0000 C.ar    1  UNL1       -0.0511
     32 C           9.1074    3.2880    0.0000 C.ar    1  UNL1       -0.0611
     33 C           7.3754    3.2813    0.0000 C.ar    1  UNL1       -0.0611
     34 C           8.2395    3.7846    0.0000 C.ar    1  UNL1       -0.0617
     35 H           4.7171   -0.8480    0.0000 H       1  UNL1        0.0422
     36 H           5.0536    0.5600    0.0000 H       1  UNL1        0.0782
     37 H           4.5124   -1.3699    0.0000 H       1  UNL1        0.0704
     38 H           4.5124   -2.1994    0.0000 H       1  UNL1        0.0704
     39 H           5.0806    1.0275    0.0000 H       1  UNL1        0.0269
     40 H           4.6018    1.7620    0.0000 H       1  UNL1        0.0269
     41 H           3.8672    1.2832    0.0000 H       1  UNL1        0.0269
     42 H           3.4548   -0.6738    0.0000 H       1  UNL1        0.0269
     43 H           3.9336   -1.4083    0.0000 H       1  UNL1        0.0269
     44 H           4.6681   -0.9295    0.0000 H       1  UNL1        0.0269
     45 H           7.3691   -3.4046    0.0000 H       1  UNL1        0.0691
     46 H           9.6913    0.5718    0.0000 H       1  UNL1        0.0693
     47 H           6.7327    1.9957    0.0000 H       1  UNL1        0.0342
     48 H           6.6853    2.8712    0.0000 H       1  UNL1        0.0342
     49 H           5.8097    2.8238    0.0000 H       1  UNL1        0.0342
     50 H           2.1279    2.1465    0.0000 H       1  UNL1        0.0342
     51 H           1.3933    1.6677    0.0000 H       1  UNL1        0.0342
     52 H           1.8721    0.9331    0.0000 H       1  UNL1        0.0342
     53 H           8.4811   -3.7846    0.0000 H       1  UNL1        0.0660
     54 H           9.1011   -4.4046    0.0000 H       1  UNL1        0.0660
     55 H           9.7211   -3.7846    0.0000 H       1  UNL1        0.0660
     56 H           9.6494    1.9800    0.0000 H       1  UNL1        0.0625
     57 H           6.8435    1.9692    0.0000 H       1  UNL1        0.0625
     58 H           9.6432    3.6000    0.0000 H       1  UNL1        0.0618
     59 H           6.8373    3.5892    0.0000 H       1  UNL1        0.0618
     60 H           8.2371    4.4046    0.0000 H       1  UNL1        0.0618
@<TRIPOS>BOND
     1     1    13    1
     2     1    14    1
     3    10     2    1
     4     2    22    1
     5     3    11    1
     6     3    24    1
     7     4    15   ar
     8     4    23   ar
     9     5    20    1
    10     5    29    1
    11     6    21    2
    12     7    22    2
    13     8    24    2
    14     9    10    1
    15     9    12    1
    16     9    13    1
    17     9    35    1
    18    10    11    1
    19    10    36    1
    20    11    16    1
    21    11    17    1
    22    12    14   ar
    23    12    15   ar
    24    13    37    1
    25    13    38    1
    26    14    19   ar
    27    15    18   ar
    28    16    39    1
    29    16    40    1
    30    16    41    1
    31    17    42    1
    32    17    43    1
    33    17    44    1
    34    18    20   ar
    35    18    21   ar
    36    19    20   ar
    37    19    45    1
    38    21    25   ar
    39    22    26    1
    40    23    25   ar
    41    23    27    1
    42    24    28    1
    43    25    46    1
    44    26    47    1
    45    26    48    1
    46    26    49    1
    47    27    30   ar
    48    27    31   ar
    49    28    50    1
    50    28    51    1
    51    28    52    1
    52    29    53    1
    53    29    54    1
    54    29    55    1
    55    30    32   ar
    56    30    56    1
    57    31    33   ar
    58    31    57    1
    59    32    34   ar
    60    32    58    1
    61    33    34   ar
    62    33    59    1
    63    34    60    1
