@<TRIPOS>MOLECULE
IMPHY003550
 39 41 0 0 0
SMALL
GASTEIGER

@<TRIPOS>ATOM
      1 O           2.5123    0.0178    0.0000 O.3     1  UNL1       -0.3873
      2 O           5.3640    2.1688    0.0000 O.3     1  UNL1       -0.4575
      3 O           4.8998   -2.5270    0.0000 O.2     1  UNL1       -0.2967
      4 O           7.1038    2.5270    0.0000 O.2     1  UNL1       -0.2453
      5 C           4.3142   -0.8500    0.0000 C.3     1  UNL1        0.0557
      6 C           3.4132   -0.4161    0.0000 C.3     1  UNL1        0.0812
      7 C           3.1907    0.5588    0.0000 C.3     1  UNL1       -0.0107
      8 C           5.2152   -0.4161    0.0000 C.3     1  UNL1       -0.0278
      9 C           2.7281   -1.1364    0.0000 C.3     1  UNL1       -0.0161
     10 C           5.4377    0.5588    0.0000 C.3     1  UNL1        0.0284
     11 C           3.8142    1.3406    0.0000 C.3     1  UNL1       -0.0099
     12 C           4.8142    1.3406    0.0000 C.3     1  UNL1        0.1107
     13 C           4.1782   -1.8347    0.0000 C.2     1  UNL1        0.1420
     14 C           3.2000   -2.0114    0.0000 C.3     1  UNL1        0.0091
     15 C           5.2152   -1.2839    0.0000 C.3     1  UNL1       -0.0501
     16 C           2.2158    0.7813    0.0000 C.3     1  UNL1       -0.0597
     17 C           6.3675    0.9105    0.0000 C.2     1  UNL1        0.0361
     18 C           6.3220    1.9036    0.0000 C.2     1  UNL1        0.3353
     19 C           7.2030    0.3611    0.0000 C.2     1  UNL1       -0.0883
     20 H           2.9100    1.3611    0.0000 H       1  UNL1        0.0327
     21 H           5.3531   -1.0206    0.0000 H       1  UNL1        0.0282
     22 H           5.8352   -0.4161    0.0000 H       1  UNL1        0.0282
     23 H           2.3263   -0.6643    0.0000 H       1  UNL1        0.0297
     24 H           2.2164   -1.4864    0.0000 H       1  UNL1        0.0297
     25 H           6.0785    0.0004    0.0000 H       1  UNL1        0.0387
     26 H           3.9522    1.9451    0.0000 H       1  UNL1        0.0304
     27 H           3.2556    1.6096    0.0000 H       1  UNL1        0.0304
     28 H           4.4124    2.0897    0.0000 H       1  UNL1        0.0740
     29 H           2.6263   -2.2467    0.0000 H       1  UNL1        0.0343
     30 H           3.3736   -2.6066    0.0000 H       1  UNL1        0.0343
     31 H           4.9462   -1.8425    0.0000 H       1  UNL1        0.0240
     32 H           5.7738   -1.5529    0.0000 H       1  UNL1        0.0240
     33 H           5.4842   -0.7253    0.0000 H       1  UNL1        0.0240
     34 H           2.3537    1.3858    0.0000 H       1  UNL1        0.0233
     35 H           1.6113    0.9193    0.0000 H       1  UNL1        0.0233
     36 H           2.0778    0.1769    0.0000 H       1  UNL1        0.0233
     37 H           2.0000   -0.3315    0.0000 H       1  UNL1        0.2102
     38 H           7.1670   -0.2579    0.0000 H       1  UNL1        0.0540
     39 H           7.7570    0.6394    0.0000 H       1  UNL1        0.0540
@<TRIPOS>BOND
     1     1     6    1
     2     1    37    1
     3     2    12    1
     4     2    18    1
     5     3    13    2
     6     4    18    2
     7     5     6    1
     8     5     8    1
     9     5    13    1
    10     5    15    1
    11     6     7    1
    12     6     9    1
    13     7    11    1
    14     7    16    1
    15     7    20    1
    16     8    10    1
    17     8    21    1
    18     8    22    1
    19     9    14    1
    20     9    23    1
    21     9    24    1
    22    10    12    1
    23    10    17    1
    24    10    25    1
    25    11    12    1
    26    11    26    1
    27    11    27    1
    28    12    28    1
    29    13    14    1
    30    14    29    1
    31    14    30    1
    32    15    31    1
    33    15    32    1
    34    15    33    1
    35    16    34    1
    36    16    35    1
    37    16    36    1
    38    17    18    1
    39    17    19    2
    40    19    38    1
    41    19    39    1
