@<TRIPOS>MOLECULE
IMPHY001582
 34 36 0 0 0
SMALL
GASTEIGER

@<TRIPOS>ATOM
      1 O           6.0682   -0.2704    0.0000 O.2     1  UNL1       -0.4470
      2 O           7.8003    1.7296    0.0000 O.3     1  UNL1       -0.5007
      3 O           4.3198    2.7642    0.0000 O.3     1  UNL1       -0.5058
      4 O           4.3198   -1.3050    0.0000 O.3     1  UNL1       -0.5009
      5 O           6.0682    2.7296    0.0000 O.2     1  UNL1       -0.2830
      6 O           2.5381   -0.2945    0.0000 O.3     1  UNL1       -0.5031
      7 O          10.3984    0.2296    0.0000 O.3     1  UNL1       -0.5032
      8 O           8.6663   -2.7704    0.0000 O.3     1  UNL1       -0.5032
      9 O          10.3984   -1.7704    0.0000 O.3     1  UNL1       -0.5009
     10 C           5.2022    1.2296    0.0000 C.ar    1  UNL1        0.1128
     11 C           5.2022    0.2296    0.0000 C.ar    1  UNL1        0.1879
     12 C           6.9343    0.2296    0.0000 C.ar    1  UNL1        0.1810
     13 C           7.8003   -0.2704    0.0000 C.ar    1  UNL1        0.0282
     14 C           6.9343    1.2296    0.0000 C.ar    1  UNL1        0.2082
     15 C           6.0682    1.7296    0.0000 C.ar    1  UNL1        0.2380
     16 C           4.3083    1.7643    0.0000 C.ar    1  UNL1        0.1350
     17 C           4.3083   -0.3051    0.0000 C.ar    1  UNL1        0.2024
     18 C           3.4022    0.2088    0.0000 C.ar    1  UNL1        0.1655
     19 C           3.4022    1.2504    0.0000 C.ar    1  UNL1        0.0259
     20 C           7.8003   -1.2704    0.0000 C.ar    1  UNL1       -0.0055
     21 C           8.6663    0.2296    0.0000 C.ar    1  UNL1       -0.0055
     22 C           9.5323   -0.2704    0.0000 C.ar    1  UNL1        0.1626
     23 C           8.6663   -1.7704    0.0000 C.ar    1  UNL1        0.1626
     24 C           9.5323   -1.2704    0.0000 C.ar    1  UNL1        0.2006
     25 H           2.8665    1.5625    0.0000 H       1  UNL1        0.0692
     26 H           7.2634   -1.5804    0.0000 H       1  UNL1        0.0662
     27 H           8.6663    0.8496    0.0000 H       1  UNL1        0.0662
     28 H           7.8003    2.3496    0.0000 H       1  UNL1        0.2924
     29 H           3.7865    3.0804    0.0000 H       1  UNL1        0.2922
     30 H           3.7865   -1.6212    0.0000 H       1  UNL1        0.2924
     31 H           2.0000    0.0134    0.0000 H       1  UNL1        0.2923
     32 H          10.3984    0.8496    0.0000 H       1  UNL1        0.2923
     33 H           8.1294   -3.0804    0.0000 H       1  UNL1        0.2923
     34 H          10.3984   -2.3904    0.0000 H       1  UNL1        0.2924
@<TRIPOS>BOND
     1     1    11   ar
     2     1    12   ar
     3     2    14    1
     4     2    28    1
     5     3    16    1
     6     3    29    1
     7     4    17    1
     8     4    30    1
     9     5    15    2
    10     6    18    1
    11     6    31    1
    12     7    22    1
    13     7    32    1
    14     8    23    1
    15     8    33    1
    16     9    24    1
    17     9    34    1
    18    10    11   ar
    19    10    15   ar
    20    10    16   ar
    21    11    17   ar
    22    12    13    1
    23    12    14   ar
    24    13    20   ar
    25    13    21   ar
    26    14    15   ar
    27    16    19   ar
    28    17    18   ar
    29    18    19   ar
    30    19    25    1
    31    20    23   ar
    32    20    26    1
    33    21    22   ar
    34    21    27    1
    35    22    24   ar
    36    23    24   ar
