@<TRIPOS>MOLECULE
IMPHY016972
 19 19 0 0 0
SMALL
GASTEIGER

@<TRIPOS>ATOM
      1 C           2.8660   -1.5000    0.0000 C.ar    1  UNL1        0.0259
      2 C           3.7320   -2.0000    0.0000 C.ar    1  UNL1       -0.0463
      3 C           2.0000   -2.0000    0.0000 C.ar    1  UNL1       -0.0463
      4 C           3.7320   -3.0000    0.0000 C.ar    1  UNL1       -0.0606
      5 C           2.0000   -3.0000    0.0000 C.ar    1  UNL1       -0.0606
      6 C           2.8660   -3.5000    0.0000 C.ar    1  UNL1       -0.0617
      7 C           2.8660   -0.5000    0.0000 C.1     1  UNL1       -0.0525
      8 C           2.8660    0.5000    0.0000 C.1     1  UNL1       -0.0096
      9 C           2.8660    3.5000    0.0000 C.3     1  UNL1       -0.0016
     10 C           2.8660    1.5000    0.0000 C.1     1  UNL1       -0.0148
     11 C           2.8660    2.5000    0.0000 C.1     1  UNL1       -0.0918
     12 H           4.2690   -1.6900    0.0000 H       1  UNL1        0.0630
     13 H           1.4631   -1.6900    0.0000 H       1  UNL1        0.0630
     14 H           4.2690   -3.3100    0.0000 H       1  UNL1        0.0618
     15 H           1.4631   -3.3100    0.0000 H       1  UNL1        0.0618
     16 H           2.8660   -4.1200    0.0000 H       1  UNL1        0.0618
     17 H           3.4860    3.5000    0.0000 H       1  UNL1        0.0362
     18 H           2.8660    4.1200    0.0000 H       1  UNL1        0.0362
     19 H           2.2460    3.5000    0.0000 H       1  UNL1        0.0362
@<TRIPOS>BOND
     1     1     2   ar
     2     1     3   ar
     3     1     7    1
     4     2     4   ar
     5     2    12    1
     6     3     5   ar
     7     3    13    1
     8     4     6   ar
     9     4    14    1
    10     5     6   ar
    11     5    15    1
    12     6    16    1
    13     7     8    3
    14     8    10    1
    15     9    11    1
    16     9    17    1
    17     9    18    1
    18     9    19    1
    19    10    11    3
