@<TRIPOS>MOLECULE
IMPHY017425
 53 52 0 0 0
SMALL
GASTEIGER

@<TRIPOS>ATOM
      1 BR          2.0000    0.2500    0.0000 Br      1  UNL1       -0.0799
      2 O           4.5981    0.7500    0.0000 O.3     1  UNL1       -0.4641
      3 O           3.7320   -0.7500    0.0000 O.2     1  UNL1       -0.2499
      4 C          11.5263    0.7500    0.0000 C.3     1  UNL1       -0.0531
      5 C          10.6603    0.2500    0.0000 C.3     1  UNL1       -0.0531
      6 C          12.3923    0.2500    0.0000 C.3     1  UNL1       -0.0531
      7 C           9.7942    0.7500    0.0000 C.3     1  UNL1       -0.0531
      8 C          13.2583    0.7500    0.0000 C.3     1  UNL1       -0.0531
      9 C           8.9282    0.2500    0.0000 C.3     1  UNL1       -0.0531
     10 C          14.1244    0.2500    0.0000 C.3     1  UNL1       -0.0531
     11 C           8.0622    0.7500    0.0000 C.3     1  UNL1       -0.0530
     12 C          14.9904    0.7500    0.0000 C.3     1  UNL1       -0.0531
     13 C           7.1962    0.2500    0.0000 C.3     1  UNL1       -0.0500
     14 C          15.8564    0.2500    0.0000 C.3     1  UNL1       -0.0533
     15 C           6.3301    0.7500    0.0000 C.3     1  UNL1       -0.0185
     16 C          16.7224    0.7500    0.0000 C.3     1  UNL1       -0.0559
     17 C           5.4641    0.2500    0.0000 C.3     1  UNL1        0.0925
     18 C          17.5885    0.2500    0.0000 C.3     1  UNL1       -0.0653
     19 C           3.7320    0.2500    0.0000 C.2     1  UNL1        0.3176
     20 C           2.8660    0.7500    0.0000 C.3     1  UNL1        0.1006
     21 H          11.9248    1.2250    0.0000 H       1  UNL1        0.0265
     22 H          11.1278    1.2250    0.0000 H       1  UNL1        0.0265
     23 H          10.2617   -0.2249    0.0000 H       1  UNL1        0.0265
     24 H          11.0588   -0.2249    0.0000 H       1  UNL1        0.0265
     25 H          11.9938   -0.2249    0.0000 H       1  UNL1        0.0265
     26 H          12.7908   -0.2249    0.0000 H       1  UNL1        0.0265
     27 H          10.1928    1.2250    0.0000 H       1  UNL1        0.0265
     28 H           9.3957    1.2250    0.0000 H       1  UNL1        0.0265
     29 H          13.6569    1.2250    0.0000 H       1  UNL1        0.0265
     30 H          12.8598    1.2250    0.0000 H       1  UNL1        0.0265
     31 H           8.5297   -0.2249    0.0000 H       1  UNL1        0.0265
     32 H           9.3267   -0.2249    0.0000 H       1  UNL1        0.0265
     33 H          13.7258   -0.2249    0.0000 H       1  UNL1        0.0265
     34 H          14.5229   -0.2249    0.0000 H       1  UNL1        0.0265
     35 H           8.4607    1.2250    0.0000 H       1  UNL1        0.0265
     36 H           7.6636    1.2250    0.0000 H       1  UNL1        0.0265
     37 H          15.3889    1.2250    0.0000 H       1  UNL1        0.0265
     38 H          14.5919    1.2250    0.0000 H       1  UNL1        0.0265
     39 H           6.7976   -0.2249    0.0000 H       1  UNL1        0.0266
     40 H           7.5947   -0.2249    0.0000 H       1  UNL1        0.0266
     41 H          15.4579   -0.2249    0.0000 H       1  UNL1        0.0265
     42 H          16.2549   -0.2249    0.0000 H       1  UNL1        0.0265
     43 H           6.7287    1.2250    0.0000 H       1  UNL1        0.0298
     44 H           5.9316    1.2250    0.0000 H       1  UNL1        0.0298
     45 H          17.1210    1.2250    0.0000 H       1  UNL1        0.0263
     46 H          16.3239    1.2250    0.0000 H       1  UNL1        0.0263
     47 H           5.0656   -0.2249    0.0000 H       1  UNL1        0.0697
     48 H           5.8626   -0.2249    0.0000 H       1  UNL1        0.0697
     49 H          17.2785   -0.2869    0.0000 H       1  UNL1        0.0230
     50 H          18.1254   -0.0600    0.0000 H       1  UNL1        0.0230
     51 H          17.8985    0.7869    0.0000 H       1  UNL1        0.0230
     52 H           3.2646    1.2250    0.0000 H       1  UNL1        0.0496
     53 H           2.4675    1.2250    0.0000 H       1  UNL1        0.0496
@<TRIPOS>BOND
     1     1    20    1
     2     2    17    1
     3     2    19    1
     4     3    19    2
     5     4     5    1
     6     4     6    1
     7     4    21    1
     8     4    22    1
     9     5     7    1
    10     5    23    1
    11     5    24    1
    12     6     8    1
    13     6    25    1
    14     6    26    1
    15     7     9    1
    16     7    27    1
    17     7    28    1
    18     8    10    1
    19     8    29    1
    20     8    30    1
    21     9    11    1
    22     9    31    1
    23     9    32    1
    24    10    12    1
    25    10    33    1
    26    10    34    1
    27    11    13    1
    28    11    35    1
    29    11    36    1
    30    12    14    1
    31    12    37    1
    32    12    38    1
    33    13    15    1
    34    13    39    1
    35    13    40    1
    36    14    16    1
    37    14    41    1
    38    14    42    1
    39    15    17    1
    40    15    43    1
    41    15    44    1
    42    16    18    1
    43    16    45    1
    44    16    46    1
    45    17    47    1
    46    17    48    1
    47    18    49    1
    48    18    50    1
    49    18    51    1
    50    19    20    1
    51    20    52    1
    52    20    53    1
