@<TRIPOS>MOLECULE
IMPHY001156
 59 61 0 0 0
SMALL
GASTEIGER

@<TRIPOS>ATOM
      1 O           7.7331    0.5000    0.0000 O.3     1  UNL1       -0.3313
      2 O           4.2690   -0.5000    0.0000 O.3     1  UNL1       -0.3405
      3 O           6.0010   -0.5000    0.0000 O.3     1  UNL1       -0.3460
      4 O           6.0010    2.5000    0.0000 O.3     1  UNL1       -0.3865
      5 O           7.7331    3.5000    0.0000 O.3     1  UNL1       -0.3864
      6 O           6.0010   -2.5000    0.0000 O.3     1  UNL1       -0.3841
      7 O           4.2690   -3.5000    0.0000 O.3     1  UNL1       -0.3864
      8 O           9.4651    0.5000    0.0000 O.3     1  UNL1       -0.4607
      9 O           2.5369   -2.5000    0.0000 O.3     1  UNL1       -0.3865
     10 O           9.4651    2.5000    0.0000 O.3     1  UNL1       -0.3829
     11 O           2.5369    0.5000    0.0000 O.3     1  UNL1       -0.3924
     12 O           7.7331   -2.5000    0.0000 O.3     1  UNL1       -0.5066
     13 C           6.8671    1.0000    0.0000 C.3     1  UNL1        0.1144
     14 C           6.8671    2.0000    0.0000 C.3     1  UNL1        0.1120
     15 C           7.7331    2.5000    0.0000 C.3     1  UNL1        0.1152
     16 C           5.1350   -2.0000    0.0000 C.3     1  UNL1        0.1341
     17 C           4.2690   -2.5000    0.0000 C.3     1  UNL1        0.1141
     18 C           5.1350   -1.0000    0.0000 C.3     1  UNL1        0.1880
     19 C           3.4030   -2.0000    0.0000 C.3     1  UNL1        0.1119
     20 C           8.5991    2.0000    0.0000 C.3     1  UNL1        0.1454
     21 C           3.4030   -1.0000    0.0000 C.3     1  UNL1        0.1130
     22 C           6.0010    0.5000    0.0000 C.3     1  UNL1        0.0796
     23 C           8.5991    1.0000    0.0000 C.3     1  UNL1        0.2308
     24 C           2.5369   -0.5000    0.0000 C.3     1  UNL1        0.0730
     25 C           9.4651   -0.5000    0.0000 C.ar    1  UNL1        0.1277
     26 C          10.3312   -1.0000    0.0000 C.ar    1  UNL1       -0.0167
     27 C           8.5991   -1.0000    0.0000 C.ar    1  UNL1        0.0217
     28 C          10.3312   -2.0000    0.0000 C.ar    1  UNL1       -0.0436
     29 C           8.5991   -2.0000    0.0000 C.ar    1  UNL1        0.1206
     30 C           9.4651   -2.5000    0.0000 C.ar    1  UNL1       -0.0170
     31 C          11.1972   -2.5000    0.0000 C.3     1  UNL1       -0.0395
     32 H           6.8671    0.3800    0.0000 H       1  UNL1        0.0647
     33 H           6.3301    1.6900    0.0000 H       1  UNL1        0.0647
     34 H           7.1962    2.8100    0.0000 H       1  UNL1        0.0648
     35 H           5.1350   -2.6200    0.0000 H       1  UNL1        0.0671
     36 H           3.7320   -2.8100    0.0000 H       1  UNL1        0.0648
     37 H           5.1350   -0.3800    0.0000 H       1  UNL1        0.0937
     38 H           2.8660   -1.6900    0.0000 H       1  UNL1        0.0647
     39 H           8.5991    2.6200    0.0000 H       1  UNL1        0.0683
     40 H           3.4030   -0.3800    0.0000 H       1  UNL1        0.0647
     41 H           5.7890    1.0826    0.0000 H       1  UNL1        0.0587
     42 H           5.3905    0.3923    0.0000 H       1  UNL1        0.0587
     43 H           8.5991    0.3800    0.0000 H       1  UNL1        0.1084
     44 H           1.9264   -0.3923    0.0000 H       1  UNL1        0.0584
     45 H           2.3249   -1.0826    0.0000 H       1  UNL1        0.0584
     46 H           6.0010    3.1200    0.0000 H       1  UNL1        0.2100
     47 H           8.2700    3.8100    0.0000 H       1  UNL1        0.2100
     48 H           6.5380   -2.1900    0.0000 H       1  UNL1        0.2101
     49 H           3.7320   -3.8100    0.0000 H       1  UNL1        0.2100
     50 H           2.0000   -2.1900    0.0000 H       1  UNL1        0.2100
     51 H          10.0021    2.1900    0.0000 H       1  UNL1        0.2102
     52 H           2.0000    0.8100    0.0000 H       1  UNL1        0.2095
     53 H          10.8681   -0.6900    0.0000 H       1  UNL1        0.0657
     54 H           8.0622   -0.6900    0.0000 H       1  UNL1        0.0691
     55 H           9.4651   -3.1200    0.0000 H       1  UNL1        0.0657
     56 H          10.8872   -3.0369    0.0000 H       1  UNL1        0.0278
     57 H          11.7341   -2.8100    0.0000 H       1  UNL1        0.0278
     58 H          11.5072   -1.9631    0.0000 H       1  UNL1        0.0278
     59 H           7.7331   -3.1200    0.0000 H       1  UNL1        0.2921
@<TRIPOS>BOND
     1     1    13    1
     2     1    23    1
     3     2    18    1
     4     2    21    1
     5    18     3    1
     6     3    22    1
     7    14     4    1
     8     4    46    1
     9    15     5    1
    10     5    47    1
    11    16     6    1
    12     6    48    1
    13    17     7    1
    14     7    49    1
    15    23     8    1
    16     8    25    1
    17    19     9    1
    18     9    50    1
    19    20    10    1
    20    10    51    1
    21    11    24    1
    22    11    52    1
    23    12    29    1
    24    12    59    1
    25    13    14    1
    26    13    22    1
    27    13    32    1
    28    14    15    1
    29    14    33    1
    30    15    20    1
    31    15    34    1
    32    16    17    1
    33    16    18    1
    34    16    35    1
    35    17    19    1
    36    17    36    1
    37    18    37    1
    38    19    21    1
    39    19    38    1
    40    20    23    1
    41    20    39    1
    42    21    24    1
    43    21    40    1
    44    22    41    1
    45    22    42    1
    46    23    43    1
    47    24    44    1
    48    24    45    1
    49    25    26   ar
    50    25    27   ar
    51    26    28   ar
    52    26    53    1
    53    27    29   ar
    54    27    54    1
    55    28    30   ar
    56    28    31    1
    57    29    30   ar
    58    30    55    1
    59    31    56    1
    60    31    57    1
    61    31    58    1
