@<TRIPOS>MOLECULE
IMPHY015426
 37 39 0 0 0
SMALL
GASTEIGER

@<TRIPOS>ATOM
      1 O           5.4966    1.8138    0.0000 O.3     1  UNL1       -0.3277
      2 O           4.1999    0.5201    0.0000 O.3     1  UNL1       -0.4604
      3 C           6.2332    0.8312    0.0000 C.3     1  UNL1        0.2157
      4 C           5.9744   -0.1347    0.0000 C.3     1  UNL1        0.0994
      5 C           7.6321    0.3224    0.0000 C.3     1  UNL1        0.0162
      6 C           7.3733   -0.6435    0.0000 C.3     1  UNL1       -0.0136
      7 C           6.4920    1.7972    0.0000 C.3     1  UNL1        0.0191
      8 C           4.7533   -1.0004    0.0000 C.ar    1  UNL1        0.0258
      9 C           5.7155   -1.1006    0.0000 C.3     1  UNL1       -0.0314
     10 C           3.9243   -0.4412    0.0000 C.ar    1  UNL1        0.1303
     11 C           7.4579    2.0560    0.0000 C.3     1  UNL1       -0.0567
     12 C           5.7849    2.5043    0.0000 C.3     1  UNL1       -0.0567
     13 C           4.6967   -2.0404    0.0000 C.ar    1  UNL1       -0.0521
     14 C           2.9812   -0.8833    0.0000 C.ar    1  UNL1       -0.0165
     15 C           2.9005   -1.9218    0.0000 C.ar    1  UNL1       -0.0470
     16 C           3.7640   -2.5043    0.0000 C.ar    1  UNL1       -0.0583
     17 C           2.0000   -2.3567    0.0000 C.3     1  UNL1       -0.0396
     18 H           8.2261    0.1446    0.0000 H       1  UNL1        0.0329
     19 H           7.8270    0.9110    0.0000 H       1  UNL1        0.0329
     20 H           7.1784   -1.2321    0.0000 H       1  UNL1        0.0298
     21 H           7.9672   -0.8213    0.0000 H       1  UNL1        0.0298
     22 H           6.6524    2.3960    0.0000 H       1  UNL1        0.0359
     23 H           5.1166   -0.9401    0.0000 H       1  UNL1        0.0261
     24 H           5.5551   -1.6995    0.0000 H       1  UNL1        0.0261
     25 H           6.3144   -1.2611    0.0000 H       1  UNL1        0.0261
     26 H           7.6184    1.4571    0.0000 H       1  UNL1        0.0234
     27 H           8.0568    2.2164    0.0000 H       1  UNL1        0.0234
     28 H           7.2974    2.6548    0.0000 H       1  UNL1        0.0234
     29 H           6.2233    2.9427    0.0000 H       1  UNL1        0.0234
     30 H           5.3465    2.9427    0.0000 H       1  UNL1        0.0234
     31 H           5.3465    2.0659    0.0000 H       1  UNL1        0.0234
     32 H           5.2147   -2.3812    0.0000 H       1  UNL1        0.0622
     33 H           2.4712   -0.5307    0.0000 H       1  UNL1        0.0657
     34 H           3.7232   -3.1229    0.0000 H       1  UNL1        0.0620
     35 H           1.7304   -1.7984    0.0000 H       1  UNL1        0.0278
     36 H           1.4417   -2.6263    0.0000 H       1  UNL1        0.0278
     37 H           2.2696   -2.9150    0.0000 H       1  UNL1        0.0278
@<TRIPOS>BOND
     1     1     3    1
     2     1     4    1
     3     2     3    1
     4     2    10    1
     5     3     5    1
     6     3     7    1
     7     4     6    1
     8     4     8    1
     9     4     9    1
    10     5     6    1
    11     5    18    1
    12     5    19    1
    13     6    20    1
    14     6    21    1
    15     7    11    1
    16     7    12    1
    17     7    22    1
    18     8    10   ar
    19     8    13   ar
    20     9    23    1
    21     9    24    1
    22     9    25    1
    23    10    14   ar
    24    11    26    1
    25    11    27    1
    26    11    28    1
    27    12    29    1
    28    12    30    1
    29    12    31    1
    30    13    16   ar
    31    13    32    1
    32    14    15   ar
    33    14    33    1
    34    15    16   ar
    35    15    17    1
    36    16    34    1
    37    17    35    1
    38    17    36    1
    39    17    37    1
