@<TRIPOS>MOLECULE
IMPHY017769
 29 28 0 0 0
SMALL
GASTEIGER

@<TRIPOS>ATOM
      1 O           7.7331    0.2500    0.0000 O.3     1  UNL1       -0.3775
      2 O           5.1350   -0.2500    0.0000 O.3     1  UNL1       -0.3752
      3 O           2.5369    0.2500    0.0000 O.3     1  UNL1       -0.3927
      4 C           9.4651    0.2500    0.0000 C.3     1  UNL1       -0.0297
      5 C           8.5991   -0.2500    0.0000 C.3     1  UNL1        0.0478
      6 C          10.3312   -0.2500    0.0000 C.3     1  UNL1       -0.0538
      7 C           6.8671   -0.2500    0.0000 C.3     1  UNL1        0.0710
      8 C           6.0010    0.2500    0.0000 C.3     1  UNL1        0.0711
      9 C          11.1972    0.2500    0.0000 C.3     1  UNL1       -0.0652
     10 C           4.2690    0.2500    0.0000 C.3     1  UNL1        0.0708
     11 C           3.4030   -0.2500    0.0000 C.3     1  UNL1        0.0676
     12 H           9.8637    0.7249    0.0000 H       1  UNL1        0.0287
     13 H           9.0666    0.7249    0.0000 H       1  UNL1        0.0287
     14 H           8.2006   -0.7249    0.0000 H       1  UNL1        0.0560
     15 H           8.9976   -0.7249    0.0000 H       1  UNL1        0.0560
     16 H           9.9326   -0.7249    0.0000 H       1  UNL1        0.0263
     17 H          10.7297   -0.7249    0.0000 H       1  UNL1        0.0263
     18 H           6.4685   -0.7249    0.0000 H       1  UNL1        0.0583
     19 H           7.2656   -0.7249    0.0000 H       1  UNL1        0.0583
     20 H           6.3996    0.7249    0.0000 H       1  UNL1        0.0583
     21 H           5.6025    0.7249    0.0000 H       1  UNL1        0.0583
     22 H          11.5072   -0.2869    0.0000 H       1  UNL1        0.0230
     23 H          11.7341    0.5600    0.0000 H       1  UNL1        0.0230
     24 H          10.8872    0.7869    0.0000 H       1  UNL1        0.0230
     25 H           4.6675    0.7249    0.0000 H       1  UNL1        0.0583
     26 H           3.8705    0.7249    0.0000 H       1  UNL1        0.0583
     27 H           3.0044   -0.7249    0.0000 H       1  UNL1        0.0580
     28 H           3.8015   -0.7249    0.0000 H       1  UNL1        0.0580
     29 H           2.0000   -0.0600    0.0000 H       1  UNL1        0.2095
@<TRIPOS>BOND
     1     1     5    1
     2     1     7    1
     3     2     8    1
     4     2    10    1
     5     3    11    1
     6     3    29    1
     7     4     5    1
     8     4     6    1
     9     4    12    1
    10     4    13    1
    11     5    14    1
    12     5    15    1
    13     6     9    1
    14     6    16    1
    15     6    17    1
    16     7     8    1
    17     7    18    1
    18     7    19    1
    19     8    20    1
    20     8    21    1
    21     9    22    1
    22     9    23    1
    23     9    24    1
    24    10    11    1
    25    10    25    1
    26    10    26    1
    27    11    27    1
    28    11    28    1
