@<TRIPOS>MOLECULE
IMPHY013965
 78 85 0 0 0
SMALL
GASTEIGER

@<TRIPOS>ATOM
      1 S           4.3358    5.0989    0.0000 S.2     1  UNL1       -0.0966
      2 O           4.2690   -1.0550    0.0000 O.3     1  UNL1       -0.3404
      3 O           7.1990    0.0199    0.0000 O.3     1  UNL1       -0.4640
      4 O           5.1350    0.4450    0.0000 O.3     1  UNL1       -0.3405
      5 O           4.2529    2.9865    0.0000 O.3     1  UNL1       -0.3382
      6 O           8.5826   -1.0941    0.0000 O.2     1  UNL1       -0.2505
      7 O           2.5369   -0.0550    0.0000 O.3     1  UNL1       -0.3841
      8 O           6.0530    2.9934    0.0000 O.3     1  UNL1       -0.3440
      9 O           2.5369    1.9450    0.0000 O.3     1  UNL1       -0.3864
     10 O           3.4493   -4.7983    0.0000 O.3     1  UNL1       -0.4526
     11 O           4.9012   -5.6365    0.0000 O.3     1  UNL1       -0.4526
     12 O          10.3312   -2.5550    0.0000 O.3     1  UNL1       -0.4913
     13 O           8.5991   -5.5550    0.0000 O.3     1  UNL1       -0.4913
     14 O          10.3312   -4.5550    0.0000 O.3     1  UNL1       -0.5009
     15 C           6.0010   -1.0550    0.0000 C.3     1  UNL1        0.0375
     16 C           6.8671   -1.5550    0.0000 C.3     1  UNL1        0.0758
     17 C           5.1350   -1.5550    0.0000 C.3     1  UNL1        0.0938
     18 C           6.8671   -2.5550    0.0000 C.3     1  UNL1        0.0233
     19 C           5.1350   -2.5550    0.0000 C.ar    1  UNL1       -0.0109
     20 C           6.0010   -3.0550    0.0000 C.ar    1  UNL1       -0.0298
     21 C           6.2102   -0.0832    0.0000 C.3     1  UNL1        0.0987
     22 C           7.6041   -0.8879    0.0000 C.2     1  UNL1        0.3116
     23 C           4.2690   -0.0550    0.0000 C.3     1  UNL1        0.1886
     24 C           7.7331   -3.0550    0.0000 C.ar    1  UNL1       -0.0320
     25 C           3.4030    0.4450    0.0000 C.3     1  UNL1        0.1341
     26 C           4.2690    1.9450    0.0000 C.3     1  UNL1        0.1187
     27 C           3.4030    1.4450    0.0000 C.3     1  UNL1        0.1144
     28 C           5.1350    1.4450    0.0000 C.3     1  UNL1        0.1137
     29 C           4.2250   -3.0619    0.0000 C.ar    1  UNL1       -0.0102
     30 C           6.0171   -4.0965    0.0000 C.ar    1  UNL1       -0.0120
     31 C           4.2170   -4.1034    0.0000 C.ar    1  UNL1        0.1666
     32 C           5.1191   -4.6243    0.0000 C.ar    1  UNL1        0.1665
     33 C           6.0450    1.9518    0.0000 C.3     1  UNL1        0.0798
     34 C           7.7331   -4.0550    0.0000 C.ar    1  UNL1       -0.0123
     35 C           8.5991   -2.5550    0.0000 C.ar    1  UNL1       -0.0123
     36 C           5.1510    3.5143    0.0000 C.3     1  UNL1        0.1921
     37 C           9.4651   -3.0550    0.0000 C.ar    1  UNL1        0.1653
     38 C           8.5991   -4.5550    0.0000 C.ar    1  UNL1        0.1653
     39 C           3.8713   -5.7439    0.0000 C.3     1  UNL1        0.2332
     40 C           9.4651   -4.0550    0.0000 C.ar    1  UNL1        0.2010
     41 C           5.1471    4.5142    0.0000 C.ar    1  UNL1        0.0451
     42 C           5.9539    5.1052    0.0000 C.ar    1  UNL1       -0.0467
     43 C           5.6412    6.0550    0.0000 C.ar    1  UNL1       -0.0543
     44 C           4.6412    6.0512    0.0000 C.ar    1  UNL1       -0.0239
     45 C          11.1972   -3.0550    0.0000 C.3     1  UNL1        0.0790
     46 C           7.7331   -6.0550    0.0000 C.3     1  UNL1        0.0790
     47 H           5.3140   -0.5545    0.0000 H       1  UNL1        0.0370
     48 H           7.6440   -1.8997    0.0000 H       1  UNL1        0.0427
     49 H           5.1350   -0.9350    0.0000 H       1  UNL1        0.0651
     50 H           7.4040   -2.2450    0.0000 H       1  UNL1        0.0405
     51 H           6.2111    0.5368    0.0000 H       1  UNL1        0.0701
     52 H           5.5938   -0.0171    0.0000 H       1  UNL1        0.0701
     53 H           3.7320   -0.3650    0.0000 H       1  UNL1        0.0938
     54 H           2.8660    0.7550    0.0000 H       1  UNL1        0.0671
     55 H           5.0018    2.3757    0.0000 H       1  UNL1        0.0651
     56 H           3.4030    2.0650    0.0000 H       1  UNL1        0.0648
     57 H           5.8678    1.0143    0.0000 H       1  UNL1        0.0647
     58 H           3.6917   -2.7457    0.0000 H       1  UNL1        0.0659
     59 H           6.5576   -4.4003    0.0000 H       1  UNL1        0.0658
     60 H           6.2496    1.3666    0.0000 H       1  UNL1        0.0588
     61 H           6.6567    2.0532    0.0000 H       1  UNL1        0.0588
     62 H           7.1962   -4.3650    0.0000 H       1  UNL1        0.0658
     63 H           8.5991   -1.9350    0.0000 H       1  UNL1        0.0658
     64 H           4.4124    3.9350    0.0000 H       1  UNL1        0.0970
     65 H           2.0000    0.2550    0.0000 H       1  UNL1        0.2101
     66 H           2.5369    2.5650    0.0000 H       1  UNL1        0.2100
     67 H           3.2817   -5.9356    0.0000 H       1  UNL1        0.1166
     68 H           4.0000   -6.3504    0.0000 H       1  UNL1        0.1166
     69 H           6.5442    4.9158    0.0000 H       1  UNL1        0.0627
     70 H          10.3312   -5.1750    0.0000 H       1  UNL1        0.2924
     71 H           6.0037    6.5580    0.0000 H       1  UNL1        0.0623
     72 H           4.2748    6.5513    0.0000 H       1  UNL1        0.0693
     73 H          10.8872   -3.5919    0.0000 H       1  UNL1        0.0660
     74 H          11.7341   -3.3650    0.0000 H       1  UNL1        0.0660
     75 H          11.5072   -2.5181    0.0000 H       1  UNL1        0.0660
     76 H           7.4231   -5.5181    0.0000 H       1  UNL1        0.0660
     77 H           7.1962   -6.3650    0.0000 H       1  UNL1        0.0660
     78 H           8.0431   -6.5919    0.0000 H       1  UNL1        0.0660
@<TRIPOS>BOND
     1     1    41   ar
     2     1    44   ar
     3    17     2    1
     4    23     2    1
     5     3    21    1
     6     3    22    1
     7     4    23    1
     8     4    28    1
     9     5    26    1
    10     5    36    1
    11     6    22    2
    12    25     7    1
    13     7    65    1
    14     8    33    1
    15     8    36    1
    16    27     9    1
    17     9    66    1
    18    10    31    1
    19    10    39    1
    20    11    32    1
    21    11    39    1
    22    12    37    1
    23    12    45    1
    24    13    38    1
    25    13    46    1
    26    14    40    1
    27    14    70    1
    28    15    16    1
    29    15    17    1
    30    15    21    1
    31    15    47    1
    32    16    18    1
    33    16    22    1
    34    16    48    1
    35    17    19    1
    36    17    49    1
    37    18    20    1
    38    18    24    1
    39    18    50    1
    40    19    20   ar
    41    19    29   ar
    42    20    30   ar
    43    21    51    1
    44    21    52    1
    45    23    25    1
    46    23    53    1
    47    24    34   ar
    48    24    35   ar
    49    25    27    1
    50    25    54    1
    51    26    27    1
    52    26    28    1
    53    26    55    1
    54    27    56    1
    55    28    33    1
    56    28    57    1
    57    29    31   ar
    58    29    58    1
    59    30    32   ar
    60    30    59    1
    61    31    32   ar
    62    33    60    1
    63    33    61    1
    64    34    38   ar
    65    34    62    1
    66    35    37   ar
    67    35    63    1
    68    36    41    1
    69    36    64    1
    70    37    40   ar
    71    38    40   ar
    72    39    67    1
    73    39    68    1
    74    41    42   ar
    75    42    43   ar
    76    42    69    1
    77    43    44   ar
    78    43    71    1
    79    44    72    1
    80    45    73    1
    81    45    74    1
    82    45    75    1
    83    46    76    1
    84    46    77    1
    85    46    78    1
