@<TRIPOS>MOLECULE
IMPHY006008
 16 16 0 0 0
SMALL
GASTEIGER

@<TRIPOS>ATOM
      1 BR          3.7320    2.2500    0.0000 Br      1  UNL1       -0.0587
      2 C           2.8660   -0.2500    0.0000 C.ar    1  UNL1       -0.0245
      3 C           2.0000   -0.7500    0.0000 C.ar    1  UNL1       -0.0546
      4 C           3.7320   -0.7500    0.0000 C.ar    1  UNL1       -0.0546
      5 C           2.0000   -1.7500    0.0000 C.ar    1  UNL1       -0.0612
      6 C           3.7320   -1.7500    0.0000 C.ar    1  UNL1       -0.0612
      7 C           2.8660   -2.2500    0.0000 C.ar    1  UNL1       -0.0617
      8 C           2.8660    0.7500    0.0000 C.2     1  UNL1       -0.0478
      9 C           3.7320    1.2500    0.0000 C.2     1  UNL1       -0.0181
     10 H           1.4631   -0.4400    0.0000 H       1  UNL1        0.0623
     11 H           4.2690   -0.4400    0.0000 H       1  UNL1        0.0623
     12 H           1.4631   -2.0600    0.0000 H       1  UNL1        0.0618
     13 H           4.2690   -2.0600    0.0000 H       1  UNL1        0.0618
     14 H           2.8660   -2.8700    0.0000 H       1  UNL1        0.0618
     15 H           2.3291    1.0600    0.0000 H       1  UNL1        0.0628
     16 H           4.2690    0.9400    0.0000 H       1  UNL1        0.0696
@<TRIPOS>BOND
     1     1     9    1
     2     2     3   ar
     3     2     4   ar
     4     2     8    1
     5     3     5   ar
     6     3    10    1
     7     4     6   ar
     8     4    11    1
     9     5     7   ar
    10     5    12    1
    11     6     7   ar
    12     6    13    1
    13     7    14    1
    14     8     9    2
    15     8    15    1
    16     9    16    1
