@<TRIPOS>MOLECULE
IMPHY001329
 48 52 0 0 0
SMALL
GASTEIGER

@<TRIPOS>ATOM
      1 O           9.7248   -0.3112    0.0000 O.2     1  UNL1       -0.4917
      2 O           7.5596   -2.5737    0.0000 O.3     1  UNL1       -0.4646
      3 O           6.2860   -1.3999    0.0000 O.2     1  UNL1       -0.2452
      4 N           6.9654    2.1163    0.0000 N.pl3   1  UNL1       -0.3268
      5 N           4.5124    0.9988    0.0000 N.ar    1  UNL1       -0.3562
      6 C           6.2962    1.3731    0.0000 C.3     1  UNL1        0.0642
      7 C           6.6028    0.3776    0.0000 C.3     1  UNL1       -0.0178
      8 C           7.6200    0.1532    0.0000 C.3     1  UNL1        0.0218
      9 C           5.3181    1.5810    0.0000 C.ar    1  UNL1        0.0409
     10 C           8.3170    0.9273    0.0000 C.2     1  UNL1       -0.0086
     11 C           6.6564    3.0673    0.0000 C.3     1  UNL1        0.0164
     12 C           5.0091    2.5321    0.0000 C.ar    1  UNL1       -0.0158
     13 C           5.6782    3.2752    0.0000 C.3     1  UNL1       -0.0096
     14 C           7.9875    1.9154    0.0000 C.2     1  UNL1       -0.0041
     15 C           9.3816    0.7181    0.0000 C.3     1  UNL1        0.1196
     16 C           7.9393   -0.8837    0.0000 C.2     1  UNL1        0.0779
     17 C           4.0150    2.5295    0.0000 C.ar    1  UNL1        0.0032
     18 C           3.7086    1.5838    0.0000 C.ar    1  UNL1        0.0470
     19 C           8.9988   -1.1175    0.0000 C.2     1  UNL1        0.0959
     20 C          10.0421    1.4689    0.0000 C.3     1  UNL1       -0.0238
     21 C           3.3334    3.3090    0.0000 C.ar    1  UNL1       -0.0523
     22 C           7.2616   -1.6191    0.0000 C.2     1  UNL1        0.3384
     23 C           2.6994    1.3521    0.0000 C.ar    1  UNL1       -0.0378
     24 C           2.3191    3.1007    0.0000 C.ar    1  UNL1       -0.0611
     25 C           2.0000    2.1156    0.0000 C.ar    1  UNL1       -0.0598
     26 C           6.8820   -3.3090    0.0000 C.3     1  UNL1        0.0820
     27 H           5.7226    0.7459    0.0000 H       1  UNL1        0.0564
     28 H           5.9878    0.2992    0.0000 H       1  UNL1        0.0296
     29 H           6.5748   -0.2417    0.0000 H       1  UNL1        0.0296
     30 H           7.0440   -0.4718    0.0000 H       1  UNL1        0.0400
     31 H           7.2703    3.1536    0.0000 H       1  UNL1        0.0467
     32 H           6.6780    3.6869    0.0000 H       1  UNL1        0.0467
     33 H           5.9105    3.8501    0.0000 H       1  UNL1        0.0329
     34 H           5.1524    3.6038    0.0000 H       1  UNL1        0.0329
     35 H           8.3970    2.3810    0.0000 H       1  UNL1        0.0781
     36 H           9.9893    0.5950    0.0000 H       1  UNL1        0.0778
     37 H           4.5113    0.3788    0.0000 H       1  UNL1        0.1657
     38 H           9.1881   -1.7079    0.0000 H       1  UNL1        0.1029
     39 H          10.5076    1.0594    0.0000 H       1  UNL1        0.0268
     40 H          10.4516    1.9344    0.0000 H       1  UNL1        0.0268
     41 H           9.5766    1.8784    0.0000 H       1  UNL1        0.0268
     42 H           3.5313    3.8966    0.0000 H       1  UNL1        0.0624
     43 H           2.5152    0.7601    0.0000 H       1  UNL1        0.0638
     44 H           1.9056    3.5626    0.0000 H       1  UNL1        0.0618
     45 H           1.3942    1.9838    0.0000 H       1  UNL1        0.0618
     46 H           6.4260   -2.8888    0.0000 H       1  UNL1        0.0661
     47 H           6.4618   -3.7649    0.0000 H       1  UNL1        0.0661
     48 H           7.3379   -3.7292    0.0000 H       1  UNL1        0.0661
@<TRIPOS>BOND
     1     1    15    1
     2     1    19    1
     3     2    22    1
     4     2    26    1
     5     3    22    2
     6     4     6    1
     7     4    11    1
     8     4    14    1
     9     5     9   ar
    10     5    18   ar
    11     5    37    1
    12     6     7    1
    13     6     9    1
    14     6    27    1
    15     7     8    1
    16     7    28    1
    17     7    29    1
    18     8    10    1
    19     8    16    1
    20     8    30    1
    21     9    12   ar
    22    10    14    2
    23    10    15    1
    24    11    13    1
    25    11    31    1
    26    11    32    1
    27    12    13    1
    28    12    17   ar
    29    13    33    1
    30    13    34    1
    31    14    35    1
    32    15    20    1
    33    15    36    1
    34    16    19    2
    35    16    22    1
    36    17    18   ar
    37    17    21   ar
    38    18    23   ar
    39    19    38    1
    40    20    39    1
    41    20    40    1
    42    20    41    1
    43    21    24   ar
    44    21    42    1
    45    23    25   ar
    46    23    43    1
    47    24    25   ar
    48    24    44    1
    49    25    45    1
    50    26    46    1
    51    26    47    1
    52    26    48    1
