@<TRIPOS>MOLECULE
IMPHY005406
 31 34 0 0 0
SMALL
GASTEIGER

@<TRIPOS>ATOM
      1 O           5.9065   -0.7228    0.0000 O.3     1  UNL1       -0.4830
      2 O           8.0505    1.3457    0.0000 O.3     1  UNL1       -0.4907
      3 O           2.4170    0.1814    0.0000 O.3     1  UNL1       -0.5066
      4 O          10.6901   -0.9985    0.0000 O.3     1  UNL1       -0.5066
      5 C           6.4033    0.8105    0.0000 C.3     1  UNL1        0.0629
      6 C           6.7123   -0.1406    0.0000 C.3     1  UNL1        0.1385
      7 C           5.4092    0.8079    0.0000 C.ar    1  UNL1        0.0047
      8 C           7.0724    1.5536    0.0000 C.3     1  UNL1        0.1002
      9 C           7.6904   -0.3485    0.0000 C.ar    1  UNL1        0.0352
     10 C           5.1028   -0.1378    0.0000 C.ar    1  UNL1        0.1285
     11 C           8.3596    0.3946    0.0000 C.ar    1  UNL1        0.1307
     12 C           4.7276    1.5874    0.0000 C.ar    1  UNL1       -0.0511
     13 C           7.9970   -1.3440    0.0000 C.ar    1  UNL1       -0.0481
     14 C           4.0936   -0.3696    0.0000 C.ar    1  UNL1        0.0219
     15 C           9.3816    0.1938    0.0000 C.ar    1  UNL1        0.0219
     16 C           3.7133    1.3790    0.0000 C.ar    1  UNL1       -0.0197
     17 C           3.3942    0.3940    0.0000 C.ar    1  UNL1        0.1203
     18 C           9.0142   -1.5684    0.0000 C.ar    1  UNL1       -0.0196
     19 C           9.7112   -0.7943    0.0000 C.ar    1  UNL1        0.1204
     20 H           6.0565    1.5865    0.0000 H       1  UNL1        0.0423
     21 H           6.8879   -0.9722    0.0000 H       1  UNL1        0.0793
     22 H           7.3046    2.1285    0.0000 H       1  UNL1        0.0704
     23 H           6.5466    1.8822    0.0000 H       1  UNL1        0.0704
     24 H           4.9255    2.1750    0.0000 H       1  UNL1        0.0623
     25 H           7.5768   -1.7999    0.0000 H       1  UNL1        0.0624
     26 H           3.9094   -0.9615    0.0000 H       1  UNL1        0.0691
     27 H           9.7912    0.6593    0.0000 H       1  UNL1        0.0691
     28 H           3.2998    1.8410    0.0000 H       1  UNL1        0.0654
     29 H           9.2035   -2.1588    0.0000 H       1  UNL1        0.0654
     30 H           2.0000    0.6402    0.0000 H       1  UNL1        0.2921
     31 H          10.8840   -1.5874    0.0000 H       1  UNL1        0.2921
@<TRIPOS>BOND
     1     1     6    1
     2     1    10    1
     3     2     8    1
     4     2    11    1
     5     3    17    1
     6     3    30    1
     7     4    19    1
     8     4    31    1
     9     5     6    1
    10     5     7    1
    11     5     8    1
    12     5    20    1
    13     6     9    1
    14     6    21    1
    15     7    10   ar
    16     7    12   ar
    17     8    22    1
    18     8    23    1
    19     9    11   ar
    20     9    13   ar
    21    10    14   ar
    22    11    15   ar
    23    12    16   ar
    24    12    24    1
    25    13    18   ar
    26    13    25    1
    27    14    17   ar
    28    14    26    1
    29    15    19   ar
    30    15    27    1
    31    16    17   ar
    32    16    28    1
    33    18    19   ar
    34    18    29    1
