@<TRIPOS>MOLECULE
IMPHY012068
 16 17 0 0 0
SMALL
GASTEIGER

@<TRIPOS>ATOM
      1 O           4.9889    1.5747    0.0000 O.2     1  UNL1       -0.2817
      2 O           6.2619   -0.1806    0.0000 O.2     1  UNL1       -0.2663
      3 N           4.6783   -0.9853    0.0000 N.am    1  UNL1       -0.2782
      4 C           3.7320    0.3194    0.0000 C.ar    1  UNL1        0.0481
      5 C           3.7320   -0.6806    0.0000 C.ar    1  UNL1        0.0448
      6 C           4.6783    0.6241    0.0000 C.2     1  UNL1        0.2493
      7 C           5.2619   -0.1806    0.0000 C.2     1  UNL1        0.2887
      8 C           2.8660    0.8194    0.0000 C.ar    1  UNL1       -0.0490
      9 C           2.8660   -1.1806    0.0000 C.ar    1  UNL1       -0.0398
     10 C           2.0000    0.3194    0.0000 C.ar    1  UNL1       -0.0610
     11 C           2.0000   -0.6806    0.0000 C.ar    1  UNL1       -0.0600
     12 H           4.8709   -1.5747    0.0000 H       1  UNL1        0.1552
     13 H           2.8660    1.4394    0.0000 H       1  UNL1        0.0625
     14 H           2.8660   -1.8006    0.0000 H       1  UNL1        0.0636
     15 H           1.4631    0.6294    0.0000 H       1  UNL1        0.0618
     16 H           1.4631   -0.9906    0.0000 H       1  UNL1        0.0618
@<TRIPOS>BOND
     1     1     6    2
     2     2     7    2
     3     3     5    1
     4     3     7   am
     5     3    12    1
     6     4     5   ar
     7     4     6    1
     8     4     8   ar
     9     5     9   ar
    10     6     7    1
    11     8    10   ar
    12     8    13    1
    13     9    11   ar
    14     9    14    1
    15    10    11   ar
    16    10    15    1
    17    11    16    1
