@<TRIPOS>MOLECULE
IMPHY008081
 51 55 0 0 0
SMALL
GASTEIGER

@<TRIPOS>ATOM
      1 O           6.0715   -1.3314    0.0000 O.3     1  UNL1       -0.4541
      2 O           8.8652    0.2848    0.0000 O.3     1  UNL1       -0.4900
      3 O           8.5952   -1.9029    0.0000 O.3     1  UNL1       -0.4559
      4 O           6.1330    0.5219    0.0000 O.2     1  UNL1       -0.2496
      5 O           5.5022    0.4172    0.0000 O.2     1  UNL1       -0.4542
      6 O           7.8935   -3.4864    0.0000 O.2     1  UNL1       -0.2512
      7 O           5.5138    3.4864    0.0000 O.2     1  UNL1       -0.2870
      8 C           7.4714   -0.5200    0.0000 C.3     1  UNL1        0.1733
      9 C           7.6810   -1.4978    0.0000 C.3     1  UNL1        0.1650
     10 C           6.8158   -1.9993    0.0000 C.3     1  UNL1        0.1460
     11 C           7.2622    0.4518    0.0000 C.ar    1  UNL1        0.0609
     12 C           8.4601   -0.6230    0.0000 C.3     1  UNL1        0.1132
     13 C           6.4767   -0.4172    0.0000 C.2     1  UNL1        0.3257
     14 C           8.1282    0.9518    0.0000 C.ar    1  UNL1        0.1286
     15 C           6.1480   -2.7436    0.0000 C.3     1  UNL1       -0.0215
     16 C           7.3173   -2.8644    0.0000 C.3     1  UNL1       -0.0215
     17 C           6.3961    0.9518    0.0000 C.ar    1  UNL1        0.1472
     18 C           8.1282    1.9518    0.0000 C.ar    1  UNL1       -0.0187
     19 C           6.3961    1.9518    0.0000 C.ar    1  UNL1        0.0645
     20 C           7.2622    2.4518    0.0000 C.ar    1  UNL1       -0.0439
     21 C           8.7015   -2.8972    0.0000 C.2     1  UNL1        0.3044
     22 C           5.5022    2.4865    0.0000 C.ar    1  UNL1        0.1931
     23 C           4.5961    0.9310    0.0000 C.ar    1  UNL1        0.1392
     24 C           4.5961    1.9727    0.0000 C.ar    1  UNL1        0.0287
     25 C           9.6157   -3.3024    0.0000 C.3     1  UNL1        0.0332
     26 C           3.7320    0.4277    0.0000 C.ar    1  UNL1        0.0174
     27 C           2.8641    0.9244    0.0000 C.ar    1  UNL1       -0.0511
     28 C           3.7359   -0.5723    0.0000 C.ar    1  UNL1       -0.0511
     29 C           2.0000    0.4210    0.0000 C.ar    1  UNL1       -0.0611
     30 C           2.8718   -1.0756    0.0000 C.ar    1  UNL1       -0.0611
     31 C           2.0038   -0.5790    0.0000 C.ar    1  UNL1       -0.0617
     32 H           8.1621   -1.1067    0.0000 H       1  UNL1        0.0790
     33 H           8.3314   -1.2295    0.0000 H       1  UNL1        0.0712
     34 H           9.0497   -0.8148    0.0000 H       1  UNL1        0.0712
     35 H           5.6865   -2.3295    0.0000 H       1  UNL1        0.0269
     36 H           5.7339   -3.2050    0.0000 H       1  UNL1        0.0269
     37 H           6.6094   -3.1576    0.0000 H       1  UNL1        0.0269
     38 H           6.7809   -3.1753    0.0000 H       1  UNL1        0.0269
     39 H           7.6282   -3.4008    0.0000 H       1  UNL1        0.0269
     40 H           7.8537   -2.5535    0.0000 H       1  UNL1        0.0269
     41 H           8.6651    2.2618    0.0000 H       1  UNL1        0.0654
     42 H           7.2622    3.0718    0.0000 H       1  UNL1        0.0627
     43 H           4.0604    2.2847    0.0000 H       1  UNL1        0.0693
     44 H           9.3645   -3.8692    0.0000 H       1  UNL1        0.0342
     45 H          10.1826   -3.5536    0.0000 H       1  UNL1        0.0342
     46 H           9.8669   -2.7356    0.0000 H       1  UNL1        0.0342
     47 H           2.8617    1.5443    0.0000 H       1  UNL1        0.0625
     48 H           4.2740   -0.8802    0.0000 H       1  UNL1        0.0625
     49 H           1.4619    0.7289    0.0000 H       1  UNL1        0.0618
     50 H           2.8742   -1.6956    0.0000 H       1  UNL1        0.0618
     51 H           1.4681   -0.8910    0.0000 H       1  UNL1        0.0618
@<TRIPOS>BOND
     1     1    10    1
     2     1    13    1
     3     2    12    1
     4     2    14    1
     5     9     3    1
     6     3    21    1
     7     4    13    2
     8     5    17   ar
     9     5    23   ar
    10     6    21    2
    11     7    22    2
    12     8     9    1
    13     8    11    1
    14     8    12    1
    15     8    13    1
    16     9    10    1
    17     9    32    1
    18    10    15    1
    19    10    16    1
    20    11    14   ar
    21    11    17   ar
    22    12    33    1
    23    12    34    1
    24    14    18   ar
    25    15    35    1
    26    15    36    1
    27    15    37    1
    28    16    38    1
    29    16    39    1
    30    16    40    1
    31    17    19   ar
    32    18    20   ar
    33    18    41    1
    34    19    20   ar
    35    19    22   ar
    36    20    42    1
    37    21    25    1
    38    22    24   ar
    39    23    24   ar
    40    23    26    1
    41    24    43    1
    42    25    44    1
    43    25    45    1
    44    25    46    1
    45    26    27   ar
    46    26    28   ar
    47    27    29   ar
    48    27    47    1
    49    28    30   ar
    50    28    48    1
    51    29    31   ar
    52    29    49    1
    53    30    31   ar
    54    30    50    1
    55    31    51    1
