@<TRIPOS>MOLECULE
IMPHY015911
 26 25 0 0 0
SMALL
GASTEIGER

@<TRIPOS>ATOM
      1 O           4.5981    0.2500    0.0000 O.3     1  UNL1       -0.4645
      2 O           5.4641   -1.2500    0.0000 O.2     1  UNL1       -0.2505
      3 C           6.3301    0.2500    0.0000 C.3     1  UNL1        0.0534
      4 C           7.1962   -0.2500    0.0000 C.3     1  UNL1       -0.0432
      5 C           6.3301    1.2500    0.0000 C.3     1  UNL1       -0.0523
      6 C           5.4641   -0.2500    0.0000 C.2     1  UNL1        0.3099
      7 C           8.0622    0.2500    0.0000 C.3     1  UNL1       -0.0645
      8 C           3.7320   -0.2500    0.0000 C.3     1  UNL1        0.0922
      9 C           2.8660    0.2500    0.0000 C.3     1  UNL1       -0.0214
     10 C           2.0000   -0.2500    0.0000 C.3     1  UNL1       -0.0622
     11 H           6.8671    0.5600    0.0000 H       1  UNL1        0.0410
     12 H           6.7976   -0.7249    0.0000 H       1  UNL1        0.0270
     13 H           7.5947   -0.7249    0.0000 H       1  UNL1        0.0270
     14 H           6.9501    1.2500    0.0000 H       1  UNL1        0.0238
     15 H           6.3301    1.8700    0.0000 H       1  UNL1        0.0238
     16 H           5.7101    1.2500    0.0000 H       1  UNL1        0.0238
     17 H           8.3722   -0.2869    0.0000 H       1  UNL1        0.0230
     18 H           8.5991    0.5600    0.0000 H       1  UNL1        0.0230
     19 H           7.7522    0.7869    0.0000 H       1  UNL1        0.0230
     20 H           3.3335   -0.7249    0.0000 H       1  UNL1        0.0697
     21 H           4.1306   -0.7249    0.0000 H       1  UNL1        0.0697
     22 H           3.2646    0.7249    0.0000 H       1  UNL1        0.0295
     23 H           2.4675    0.7249    0.0000 H       1  UNL1        0.0295
     24 H           1.6900    0.2869    0.0000 H       1  UNL1        0.0231
     25 H           1.4631   -0.5600    0.0000 H       1  UNL1        0.0231
     26 H           2.3100   -0.7869    0.0000 H       1  UNL1        0.0231
@<TRIPOS>BOND
     1     1     6    1
     2     1     8    1
     3     2     6    2
     4     3     4    1
     5     3     5    1
     6     3     6    1
     7     3    11    1
     8     4     7    1
     9     4    12    1
    10     4    13    1
    11     5    14    1
    12     5    15    1
    13     5    16    1
    14     7    17    1
    15     7    18    1
    16     7    19    1
    17     8     9    1
    18     8    20    1
    19     8    21    1
    20     9    10    1
    21     9    22    1
    22     9    23    1
    23    10    24    1
    24    10    25    1
    25    10    26    1
