@<TRIPOS>MOLECULE
IMPHY011053
 25 24 0 0 0
SMALL
GASTEIGER

@<TRIPOS>ATOM
      1 O           2.5369    1.6550    0.0000 O.3     1  UNL1       -0.3947
      2 C           6.0010   -1.3450    0.0000 C.3     1  UNL1       -0.0499
      3 C           5.1350   -0.8450    0.0000 C.3     1  UNL1       -0.0348
      4 C           6.8671   -0.8450    0.0000 C.3     1  UNL1       -0.0556
      5 C           4.2690   -1.3450    0.0000 C.2     1  UNL1       -0.0879
      6 C           7.7331   -1.3450    0.0000 C.3     1  UNL1       -0.0653
      7 C           3.4030    0.1550    0.0000 C.3     1  UNL1       -0.0115
      8 C           3.4030   -0.8450    0.0000 C.2     1  UNL1       -0.0858
      9 C           2.5369    0.6550    0.0000 C.3     1  UNL1        0.0476
     10 H           5.6025   -1.8200    0.0000 H       1  UNL1        0.0268
     11 H           6.3996   -1.8200    0.0000 H       1  UNL1        0.0268
     12 H           5.5335   -0.3701    0.0000 H       1  UNL1        0.0307
     13 H           4.7365   -0.3701    0.0000 H       1  UNL1        0.0307
     14 H           7.2656   -0.3701    0.0000 H       1  UNL1        0.0263
     15 H           6.4685   -0.3701    0.0000 H       1  UNL1        0.0263
     16 H           4.2690   -1.9650    0.0000 H       1  UNL1        0.0569
     17 H           7.4231   -1.8819    0.0000 H       1  UNL1        0.0230
     18 H           8.2700   -1.6550    0.0000 H       1  UNL1        0.0230
     19 H           8.0431   -0.8081    0.0000 H       1  UNL1        0.0230
     20 H           4.0135    0.0473    0.0000 H       1  UNL1        0.0329
     21 H           3.6150    0.7376    0.0000 H       1  UNL1        0.0329
     22 H           2.8660   -1.1550    0.0000 H       1  UNL1        0.0570
     23 H           1.9264    0.7627    0.0000 H       1  UNL1        0.0560
     24 H           2.3249    0.0724    0.0000 H       1  UNL1        0.0560
     25 H           2.0000    1.9650    0.0000 H       1  UNL1        0.2094
@<TRIPOS>BOND
     1     1     9    1
     2     1    25    1
     3     2     3    1
     4     2     4    1
     5     2    10    1
     6     2    11    1
     7     3     5    1
     8     3    12    1
     9     3    13    1
    10     4     6    1
    11     4    14    1
    12     4    15    1
    13     5     8    2
    14     5    16    1
    15     6    17    1
    16     6    18    1
    17     6    19    1
    18     7     8    1
    19     7     9    1
    20     7    20    1
    21     7    21    1
    22     8    22    1
    23     9    23    1
    24     9    24    1
