@<TRIPOS>MOLECULE
IMPHY004962
 77 84 0 0 0
SMALL
GASTEIGER

@<TRIPOS>ATOM
      1 O           7.2914    4.6007    0.0000 O.3     1  UNL1       -0.4813
      2 O           6.4361    2.0975    0.0000 O.3     1  UNL1       -0.4763
      3 O           5.7534    5.0965    0.0000 O.3     1  UNL1       -0.3853
      4 O           8.5301    1.3962    0.0000 O.2     1  UNL1       -0.4502
      5 O          10.9014    3.9736    0.0000 O.3     1  UNL1       -0.5058
      6 O           4.6501   -0.9476    0.0000 O.2     1  UNL1       -0.4500
      7 O           2.8937   -4.1018    0.0000 O.3     1  UNL1       -0.4815
      8 O          11.3923    2.2952    0.0000 O.2     1  UNL1       -0.2863
      9 O           6.4203    0.0492    0.0000 O.3     1  UNL1       -0.5009
     10 O           2.8963    2.0838    0.0000 O.3     1  UNL1       -0.5058
     11 O           8.0670   -0.5818    0.0000 O.3     1  UNL1       -0.5009
     12 O           2.0520    0.5524    0.0000 O.2     1  UNL1       -0.2863
     13 O           9.5649   -1.9789    0.0000 O.3     1  UNL1       -0.5032
     14 C           6.5211    3.9088    0.0000 C.3     1  UNL1        0.1690
     15 C           6.9394    2.9616    0.0000 C.3     1  UNL1        0.1714
     16 C           5.5434    4.1188    0.0000 C.3     1  UNL1        0.1010
     17 C           7.9697    3.0649    0.0000 C.ar    1  UNL1        0.0811
     18 C           8.1884    4.0834    0.0000 C.ar    1  UNL1        0.1351
     19 C           8.7476    2.3723    0.0000 C.ar    1  UNL1        0.1533
     20 C           4.5656    4.3287    0.0000 C.3     1  UNL1       -0.0327
     21 C           5.3334    3.1410    0.0000 C.3     1  UNL1       -0.0327
     22 C           9.7017    2.6719    0.0000 C.ar    1  UNL1        0.1065
     23 C           9.1822    4.3955    0.0000 C.ar    1  UNL1        0.0229
     24 C           9.9439    3.6850    0.0000 C.ar    1  UNL1        0.1347
     25 C           5.5681    1.6008    0.0000 C.ar    1  UNL1        0.1700
     26 C          10.4382    1.9955    0.0000 C.ar    1  UNL1        0.2038
     27 C           9.2667    0.7198    0.0000 C.ar    1  UNL1        0.1841
     28 C          10.2207    1.0195    0.0000 C.ar    1  UNL1        0.0686
     29 C           5.5601    0.5592    0.0000 C.ar    1  UNL1        0.2027
     30 C           4.6660    2.1216    0.0000 C.ar    1  UNL1        0.0262
     31 C           4.6501    0.0524    0.0000 C.ar    1  UNL1        0.1877
     32 C           3.7841    0.5524    0.0000 C.ar    1  UNL1        0.1097
     33 C           3.7680    1.5939    0.0000 C.ar    1  UNL1        0.1349
     34 C           3.7841   -1.4476    0.0000 C.ar    1  UNL1        0.1500
     35 C           9.0244   -0.2932    0.0000 C.ar    1  UNL1        0.2021
     36 C           3.8334   -4.6444    0.0000 C.3     1  UNL1        0.1235
     37 C           2.9180   -0.9476    0.0000 C.ar    1  UNL1        0.0655
     38 C          10.9987    0.3268    0.0000 C.ar    1  UNL1       -0.0437
     39 C           3.8001   -2.4891    0.0000 C.ar    1  UNL1        0.0595
     40 C           2.9180    0.0524    0.0000 C.ar    1  UNL1        0.2039
     41 C           2.9021   -3.0169    0.0000 C.ar    1  UNL1        0.1324
     42 C           4.7688   -4.0946    0.0000 C.2     1  UNL1       -0.0408
     43 C           9.7862   -1.0037    0.0000 C.ar    1  UNL1        0.1620
     44 C           4.7520   -3.0098    0.0000 C.2     1  UNL1       -0.0478
     45 C          10.7799   -0.6916    0.0000 C.ar    1  UNL1       -0.0156
     46 C           2.0080   -1.4545    0.0000 C.ar    1  UNL1       -0.0439
     47 C           2.0000   -2.4961    0.0000 C.ar    1  UNL1       -0.0184
     48 C           4.3367   -5.5084    0.0000 C.3     1  UNL1       -0.0215
     49 C           3.3367   -5.5123    0.0000 C.3     1  UNL1       -0.0215
     50 H           6.3024    4.7302    0.0000 H       1  UNL1        0.0803
     51 H           6.0907    3.0090    0.0000 H       1  UNL1        0.0826
     52 H           4.7272    3.2712    0.0000 H       1  UNL1        0.0258
     53 H           5.2032    2.5349    0.0000 H       1  UNL1        0.0258
     54 H           5.9396    3.0109    0.0000 H       1  UNL1        0.0258
     55 H           4.6958    4.9349    0.0000 H       1  UNL1        0.0258
     56 H           3.9595    4.4589    0.0000 H       1  UNL1        0.0258
     57 H           4.4355    3.7226    0.0000 H       1  UNL1        0.0258
     58 H           9.3194    5.0001    0.0000 H       1  UNL1        0.0691
     59 H           5.2935    5.5123    0.0000 H       1  UNL1        0.2103
     60 H           4.6636    2.7416    0.0000 H       1  UNL1        0.0692
     61 H          11.0432    4.5772    0.0000 H       1  UNL1        0.2922
     62 H          11.5880    0.5194    0.0000 H       1  UNL1        0.0627
     63 H           5.3093   -4.3984    0.0000 H       1  UNL1        0.0611
     64 H           5.2829   -2.6895    0.0000 H       1  UNL1        0.0624
     65 H          11.2382   -1.1092    0.0000 H       1  UNL1        0.0655
     66 H           1.4747   -1.1383    0.0000 H       1  UNL1        0.0627
     67 H           1.4619   -2.8040    0.0000 H       1  UNL1        0.0654
     68 H           3.8010   -5.8205    0.0000 H       1  UNL1        0.0271
     69 H           4.6488   -6.0442    0.0000 H       1  UNL1        0.0271
     70 H           4.8724   -5.1964    0.0000 H       1  UNL1        0.0271
     71 H           2.7986   -5.2044    0.0000 H       1  UNL1        0.0271
     72 H           3.0288   -6.0504    0.0000 H       1  UNL1        0.0271
     73 H           3.8748   -5.8202    0.0000 H       1  UNL1        0.0271
     74 H           6.4131   -0.5707    0.0000 H       1  UNL1        0.2924
     75 H           2.8891    2.7038    0.0000 H       1  UNL1        0.2922
     76 H           7.9251   -1.1854    0.0000 H       1  UNL1        0.2924
     77 H          10.0199   -2.4000    0.0000 H       1  UNL1        0.2923
@<TRIPOS>BOND
     1     1    14    1
     2     1    18    1
     3     2    15    1
     4     2    25    1
     5     3    16    1
     6     3    59    1
     7     4    19   ar
     8     4    27   ar
     9     5    24    1
    10     5    61    1
    11     6    31   ar
    12     6    34   ar
    13     7    36    1
    14     7    41    1
    15     8    26    2
    16     9    29    1
    17     9    74    1
    18    10    33    1
    19    10    75    1
    20    11    35    1
    21    11    76    1
    22    12    40    2
    23    13    43    1
    24    13    77    1
    25    14    15    1
    26    14    16    1
    27    14    50    1
    28    15    17    1
    29    15    51    1
    30    16    20    1
    31    16    21    1
    32    17    18   ar
    33    17    19   ar
    34    18    23   ar
    35    19    22   ar
    36    20    55    1
    37    20    56    1
    38    20    57    1
    39    21    52    1
    40    21    53    1
    41    21    54    1
    42    22    24   ar
    43    22    26   ar
    44    23    24   ar
    45    23    58    1
    46    25    29   ar
    47    25    30   ar
    48    26    28   ar
    49    27    28   ar
    50    27    35   ar
    51    28    38   ar
    52    29    31   ar
    53    30    33   ar
    54    30    60    1
    55    31    32   ar
    56    32    33   ar
    57    32    40   ar
    58    34    37   ar
    59    34    39   ar
    60    35    43   ar
    61    36    42    1
    62    36    48    1
    63    36    49    1
    64    37    40   ar
    65    37    46   ar
    66    38    45   ar
    67    38    62    1
    68    39    41   ar
    69    39    44    1
    70    41    47   ar
    71    42    44    2
    72    42    63    1
    73    43    45   ar
    74    44    64    1
    75    45    65    1
    76    46    47   ar
    77    46    66    1
    78    47    67    1
    79    48    68    1
    80    48    69    1
    81    48    70    1
    82    49    71    1
    83    49    72    1
    84    49    73    1
