@<TRIPOS>MOLECULE
IMPHY017032
 34 35 0 0 0
SMALL
GASTEIGER

@<TRIPOS>ATOM
      1 C           3.7320    0.5000    0.0000 C.3     1  UNL1       -0.0021
      2 C           3.7320   -0.5000    0.0000 C.ar    1  UNL1       -0.0399
      3 C           4.5981    1.0000    0.0000 C.ar    1  UNL1       -0.0428
      4 C           2.8660   -1.0000    0.0000 C.ar    1  UNL1       -0.0469
      5 C           4.5981   -1.0000    0.0000 C.ar    1  UNL1       -0.0551
      6 C           4.5981   -2.0000    0.0000 C.ar    1  UNL1       -0.0502
      7 C           5.4641    0.5000    0.0000 C.ar    1  UNL1       -0.0553
      8 C           2.8660   -2.0000    0.0000 C.ar    1  UNL1       -0.0583
      9 C           4.5981    2.0000    0.0000 C.ar    1  UNL1       -0.0582
     10 C           3.7320   -2.5000    0.0000 C.ar    1  UNL1       -0.0586
     11 C           6.3301    1.0000    0.0000 C.ar    1  UNL1       -0.0502
     12 C           2.0000   -0.5000    0.0000 C.3     1  UNL1       -0.0394
     13 C           5.4641    2.5000    0.0000 C.ar    1  UNL1       -0.0612
     14 C           6.3301    2.0000    0.0000 C.ar    1  UNL1       -0.0588
     15 C           5.4641   -2.5000    0.0000 C.3     1  UNL1       -0.0397
     16 C           7.1962    0.5000    0.0000 C.3     1  UNL1       -0.0397
     17 H           3.5200    1.0826    0.0000 H       1  UNL1        0.0362
     18 H           3.1215    0.3923    0.0000 H       1  UNL1        0.0362
     19 H           5.1350   -0.6900    0.0000 H       1  UNL1        0.0623
     20 H           5.4641   -0.1200    0.0000 H       1  UNL1        0.0623
     21 H           2.3291   -2.3100    0.0000 H       1  UNL1        0.0620
     22 H           4.0611    2.3100    0.0000 H       1  UNL1        0.0620
     23 H           3.7320   -3.1200    0.0000 H       1  UNL1        0.0620
     24 H           2.3100    0.0369    0.0000 H       1  UNL1        0.0278
     25 H           1.4631   -0.1900    0.0000 H       1  UNL1        0.0278
     26 H           1.6900   -1.0369    0.0000 H       1  UNL1        0.0278
     27 H           5.4641    3.1200    0.0000 H       1  UNL1        0.0618
     28 H           6.8671    2.3100    0.0000 H       1  UNL1        0.0620
     29 H           5.1541   -3.0369    0.0000 H       1  UNL1        0.0278
     30 H           6.0010   -2.8100    0.0000 H       1  UNL1        0.0278
     31 H           5.7741   -1.9631    0.0000 H       1  UNL1        0.0278
     32 H           6.8862   -0.0369    0.0000 H       1  UNL1        0.0278
     33 H           7.7331    0.1900    0.0000 H       1  UNL1        0.0278
     34 H           7.5062    1.0369    0.0000 H       1  UNL1        0.0278
@<TRIPOS>BOND
     1     1     2    1
     2     1     3    1
     3     1    17    1
     4     1    18    1
     5     2     4   ar
     6     2     5   ar
     7     3     7   ar
     8     3     9   ar
     9     4     8   ar
    10     4    12    1
    11     5     6   ar
    12     5    19    1
    13     6    10   ar
    14     6    15    1
    15     7    11   ar
    16     7    20    1
    17     8    10   ar
    18     8    21    1
    19     9    13   ar
    20     9    22    1
    21    10    23    1
    22    11    14   ar
    23    11    16    1
    24    12    24    1
    25    12    25    1
    26    12    26    1
    27    13    14   ar
    28    13    27    1
    29    14    28    1
    30    15    29    1
    31    15    30    1
    32    15    31    1
    33    16    32    1
    34    16    33    1
    35    16    34    1
