@<TRIPOS>MOLECULE
IMPHY013950
 55 60 0 0 0
SMALL
GASTEIGER

@<TRIPOS>ATOM
      1 O           6.2680   -2.3338    0.0000 O.3     1  UNL1       -0.3243
      2 O           8.8290   -1.6297    0.0000 O.co2   1  UNL1       -0.7721
      3 O           8.1431    1.6757    0.0000 O.3     1  UNL1       -0.4671
      4 O           6.5654    0.6546    0.0000 O.2     1  UNL1       -0.2496
      5 O           2.6720    0.5489    0.0000 O.3     1  UNL1       -0.4951
      6 N           7.8453   -1.8096    0.0000 N.3     1  UNL1        0.2447
      7 N           6.6767    1.1752    0.0000 N.ar    1  UNL1       -0.3566
      8 C           8.3112   -0.9465    0.0000 C.3     1  UNL1        0.0055
      9 C           7.9294   -0.0431    0.0000 C.3     1  UNL1        0.1505
     10 C           9.5476    0.6630    0.0000 C.3     1  UNL1        0.0304
     11 C           7.2312   -2.5968    0.0000 C.3     1  UNL1        0.0889
     12 C           9.3230   -1.0882    0.0000 C.3     1  UNL1        0.0038
     13 C           8.5328    0.7812    0.0000 C.3     1  UNL1       -0.0160
     14 C           9.9453   -0.2780    0.0000 C.3     1  UNL1       -0.0346
     15 C           6.8805   -1.9860    0.0000 C.3     1  UNL1        0.0016
     16 C           6.1393   -1.3437    0.0000 C.3     1  UNL1        0.1310
     17 C           6.9857    0.2242    0.0000 C.ar    1  UNL1        0.0454
     18 C           6.1767   -0.3636    0.0000 C.ar    1  UNL1        0.0161
     19 C           9.7016   -2.0138    0.0000 C.3     1  UNL1       -0.0479
     20 C           7.5401    0.8780    0.0000 C.2     1  UNL1        0.3244
     21 C           5.3677    0.2242    0.0000 C.ar    1  UNL1        0.0092
     22 C           5.6767    1.1752    0.0000 C.ar    1  UNL1        0.0473
     23 C          10.6925   -2.1486    0.0000 C.3     1  UNL1       -0.0648
     24 C           4.3523   -0.0081    0.0000 C.ar    1  UNL1       -0.0104
     25 C           4.9917    1.9600    0.0000 C.ar    1  UNL1       -0.0343
     26 C           3.6493    0.7606    0.0000 C.ar    1  UNL1        0.1208
     27 C           7.7538    2.5968    0.0000 C.3     1  UNL1        0.0817
     28 C           3.9712    1.7513    0.0000 C.ar    1  UNL1       -0.0180
     29 C           2.0000    1.2895    0.0000 C.3     1  UNL1        0.0788
     30 H           8.6889   -0.4548    0.0000 H       1  UNL1        0.0868
     31 H           9.9196    1.1590    0.0000 H       1  UNL1        0.0382
     32 H           7.4267   -3.1852    0.0000 H       1  UNL1        0.1189
     33 H           9.9375   -1.1706    0.0000 H       1  UNL1        0.0356
     34 H           8.7089    1.3757    0.0000 H       1  UNL1        0.0287
     35 H           7.9773    1.0565    0.0000 H       1  UNL1        0.0287
     36 H          10.3651   -0.7343    0.0000 H       1  UNL1        0.0275
     37 H          10.4667    0.0575    0.0000 H       1  UNL1        0.0275
     38 H           6.3800   -2.3520    0.0000 H       1  UNL1        0.0843
     39 H           7.1254   -2.5556    0.0000 H       1  UNL1        0.0843
     40 H           5.5199   -1.3719    0.0000 H       1  UNL1        0.0703
     41 H           9.0957   -2.1453    0.0000 H       1  UNL1        0.0267
     42 H           9.7259   -2.6333    0.0000 H       1  UNL1        0.0267
     43 H           7.0411    1.6768    0.0000 H       1  UNL1        0.1656
     44 H          10.6088   -2.7630    0.0000 H       1  UNL1        0.0230
     45 H          11.3068   -2.2322    0.0000 H       1  UNL1        0.0230
     46 H          10.7761   -1.5343    0.0000 H       1  UNL1        0.0230
     47 H           4.1675   -0.5999    0.0000 H       1  UNL1        0.0661
     48 H           5.1901    2.5474    0.0000 H       1  UNL1        0.0639
     49 H           8.3249    2.8382    0.0000 H       1  UNL1        0.0661
     50 H           7.5124    3.1679    0.0000 H       1  UNL1        0.0661
     51 H           7.1827    2.3554    0.0000 H       1  UNL1        0.0661
     52 H           3.5581    2.2136    0.0000 H       1  UNL1        0.0655
     53 H           2.4592    1.7061    0.0000 H       1  UNL1        0.0660
     54 H           1.5834    1.7486    0.0000 H       1  UNL1        0.0660
     55 H           1.5408    0.8729    0.0000 H       1  UNL1        0.0660
@<TRIPOS>UNITY_ATOM_ATTR
2 1
charge -1
6 1
charge 1
@<TRIPOS>BOND
     1     1    11    1
     2     1    16    1
     3     2     6    1
     4     3    20    1
     5     3    27    1
     6     4    20    2
     7     5    26    1
     8     5    29    1
     9     6     8    1
    10     6    11    1
    11     6    15    1
    12     7    17   ar
    13     7    22   ar
    14     7    43    1
    15     8     9    1
    16     8    12    1
    17     8    30    1
    18     9    13    1
    19     9    17    1
    20     9    20    1
    21    10    11    1
    22    10    13    1
    23    10    14    1
    24    10    31    1
    25    11    32    1
    26    12    14    1
    27    12    19    1
    28    12    33    1
    29    13    34    1
    30    13    35    1
    31    14    36    1
    32    14    37    1
    33    15    16    1
    34    15    38    1
    35    15    39    1
    36    16    18    1
    37    16    40    1
    38    17    18   ar
    39    18    21   ar
    40    19    23    1
    41    19    41    1
    42    19    42    1
    43    21    22   ar
    44    21    24   ar
    45    22    25   ar
    46    23    44    1
    47    23    45    1
    48    23    46    1
    49    24    26   ar
    50    24    47    1
    51    25    28   ar
    52    25    48    1
    53    26    28   ar
    54    27    49    1
    55    27    50    1
    56    27    51    1
    57    28    52    1
    58    29    53    1
    59    29    54    1
    60    29    55    1
