@<TRIPOS>MOLECULE
IMPHY012603
 38 39 0 0 0
SMALL
GASTEIGER

@<TRIPOS>ATOM
      1 O           5.4883    1.4460    0.0000 O.3     1  UNL1       -0.3883
      2 C           3.7320    0.5549    0.0000 C.3     1  UNL1       -0.0002
      3 C           3.7320   -0.4451    0.0000 C.3     1  UNL1       -0.0278
      4 C           2.8660   -0.9451    0.0000 C.3     1  UNL1       -0.0315
      5 C           4.6783    0.8596    0.0000 C.3     1  UNL1        0.0689
      6 C           4.6783   -0.7499    0.0000 C.3     1  UNL1       -0.0465
      7 C           2.8660    1.0548    0.0000 C.3     1  UNL1       -0.0447
      8 C           5.2619    0.0549    0.0000 C.3     1  UNL1       -0.0235
      9 C           2.0000   -0.4451    0.0000 C.3     1  UNL1       -0.0476
     10 C           2.0000    0.5549    0.0000 C.3     1  UNL1       -0.0520
     11 C           3.7320    1.5548    0.0000 C.3     1  UNL1       -0.0567
     12 C           2.3660   -1.8112    0.0000 C.3     1  UNL1       -0.0595
     13 C           3.3660   -1.8112    0.0000 C.3     1  UNL1       -0.0595
     14 C           4.3709    1.8112    0.0000 C.3     1  UNL1       -0.0356
     15 H           3.7977   -1.0617    0.0000 H       1  UNL1        0.0312
     16 H           4.4272   -1.3168    0.0000 H       1  UNL1        0.0269
     17 H           5.2156   -1.0591    0.0000 H       1  UNL1        0.0269
     18 H           3.2646    1.5298    0.0000 H       1  UNL1        0.0271
     19 H           2.4675    1.5298    0.0000 H       1  UNL1        0.0271
     20 H           5.7227   -0.3599    0.0000 H       1  UNL1        0.0293
     21 H           5.7227    0.4696    0.0000 H       1  UNL1        0.0293
     22 H           1.3894   -0.3375    0.0000 H       1  UNL1        0.0271
     23 H           1.7880   -1.0278    0.0000 H       1  UNL1        0.0271
     24 H           1.7880    1.1375    0.0000 H       1  UNL1        0.0266
     25 H           1.3894    0.4472    0.0000 H       1  UNL1        0.0266
     26 H           4.3520    1.5548    0.0000 H       1  UNL1        0.0236
     27 H           3.7320    2.1748    0.0000 H       1  UNL1        0.0236
     28 H           3.1120    1.5548    0.0000 H       1  UNL1        0.0236
     29 H           1.8291   -1.5012    0.0000 H       1  UNL1        0.0235
     30 H           2.0560   -2.3481    0.0000 H       1  UNL1        0.0235
     31 H           2.9030   -2.1212    0.0000 H       1  UNL1        0.0235
     32 H           2.8291   -2.1212    0.0000 H       1  UNL1        0.0235
     33 H           3.6760   -2.3481    0.0000 H       1  UNL1        0.0235
     34 H           3.9030   -1.5012    0.0000 H       1  UNL1        0.0235
     35 H           4.9609    2.0017    0.0000 H       1  UNL1        0.0257
     36 H           4.1803    2.4012    0.0000 H       1  UNL1        0.0257
     37 H           3.7809    1.6206    0.0000 H       1  UNL1        0.0257
     38 H           6.0543    1.1928    0.0000 H       1  UNL1        0.2102
@<TRIPOS>BOND
     1     1     5    1
     2     1    38    1
     3     2     3    1
     4     2     5    1
     5     2     7    1
     6     2    11    1
     7     3     4    1
     8     3     6    1
     9     3    15    1
    10     4     9    1
    11     4    12    1
    12     4    13    1
    13     5     8    1
    14     5    14    1
    15     6     8    1
    16     6    16    1
    17     6    17    1
    18     7    10    1
    19     7    18    1
    20     7    19    1
    21     8    20    1
    22     8    21    1
    23     9    10    1
    24     9    22    1
    25     9    23    1
    26    10    24    1
    27    10    25    1
    28    11    26    1
    29    11    27    1
    30    11    28    1
    31    12    29    1
    32    12    30    1
    33    12    31    1
    34    13    32    1
    35    13    33    1
    36    13    34    1
    37    14    35    1
    38    14    36    1
    39    14    37    1
