@<TRIPOS>MOLECULE
IMPHY000565
 29 33 0 0 0
SMALL
GASTEIGER

@<TRIPOS>ATOM
      1 O           3.4519   -2.7090    0.0000 O.3     1  UNL1       -0.4526
      2 O           2.0000   -1.8708    0.0000 O.3     1  UNL1       -0.4526
      3 O           2.8197    1.8725    0.0000 O.2     1  UNL1       -0.2667
      4 N           4.5518    1.8725    0.0000 N.ar    1  UNL1       -0.2825
      5 C           5.4178    1.3725    0.0000 C.ar    1  UNL1        0.0643
      6 C           5.4178    0.3725    0.0000 C.ar    1  UNL1        0.0075
      7 C           4.5518   -0.1275    0.0000 C.ar    1  UNL1        0.0001
      8 C           3.6857    0.3725    0.0000 C.ar    1  UNL1        0.0513
      9 C           6.3117    1.9072    0.0000 C.ar    1  UNL1        0.0009
     10 C           3.6857    1.3725    0.0000 C.ar    1  UNL1        0.2636
     11 C           4.5678   -1.1690    0.0000 C.ar    1  UNL1       -0.0076
     12 C           2.7757   -0.1344    0.0000 C.ar    1  UNL1       -0.0032
     13 C           4.9169    2.7968    0.0000 C.ar    1  UNL1        0.0139
     14 C           3.6698   -1.6968    0.0000 C.ar    1  UNL1        0.1668
     15 C           2.7677   -1.1760    0.0000 C.ar    1  UNL1        0.1670
     16 C           6.3117   -0.1622    0.0000 C.ar    1  UNL1       -0.0520
     17 C           5.9105    2.8164    0.0000 C.ar    1  UNL1       -0.0360
     18 C           7.2178    1.3933    0.0000 C.ar    1  UNL1       -0.0525
     19 C           7.2178    0.3517    0.0000 C.ar    1  UNL1       -0.0605
     20 C           2.4220   -2.8164    0.0000 C.3     1  UNL1        0.2332
     21 H           5.1083   -1.4728    0.0000 H       1  UNL1        0.0662
     22 H           2.2424    0.1818    0.0000 H       1  UNL1        0.0663
     23 H           4.5632    3.3060    0.0000 H       1  UNL1        0.0814
     24 H           6.3046   -0.7821    0.0000 H       1  UNL1        0.0624
     25 H           6.2439    3.3391    0.0000 H       1  UNL1        0.0639
     26 H           7.7535    1.7054    0.0000 H       1  UNL1        0.0624
     27 H           7.7535    0.0396    0.0000 H       1  UNL1        0.0618
     28 H           1.8324   -3.0081    0.0000 H       1  UNL1        0.1166
     29 H           2.5507   -3.4229    0.0000 H       1  UNL1        0.1166
@<TRIPOS>BOND
     1     1    14    1
     2     1    20    1
     3     2    15    1
     4     2    20    1
     5     3    10    2
     6     4     5   ar
     7     4    10   ar
     8     4    13   ar
     9     5     6   ar
    10     5     9   ar
    11     6     7   ar
    12     6    16   ar
    13     7     8   ar
    14     7    11   ar
    15     8    10   ar
    16     8    12   ar
    17     9    17   ar
    18     9    18   ar
    19    11    14   ar
    20    11    21    1
    21    12    15   ar
    22    12    22    1
    23    13    17   ar
    24    13    23    1
    25    14    15   ar
    26    16    19   ar
    27    16    24    1
    28    17    25    1
    29    18    19   ar
    30    18    26    1
    31    19    27    1
    32    20    28    1
    33    20    29    1
