@<TRIPOS>MOLECULE
IMPHY004098
 111 113 0 0 0
SMALL
GASTEIGER

@<TRIPOS>ATOM
      1 O           4.2690    5.9050    0.0000 O.3     1  UNL1       -0.3405
      2 O           7.7331    6.9050    0.0000 O.3     1  UNL1       -0.3312
      3 O           6.0010    5.9050    0.0000 O.3     1  UNL1       -0.3460
      4 O           6.0010    8.9050    0.0000 O.3     1  UNL1       -0.3865
      5 O           6.0010    3.9050    0.0000 O.3     1  UNL1       -0.3841
      6 O           4.2690    2.9050    0.0000 O.3     1  UNL1       -0.3864
      7 O           7.7331    9.9050    0.0000 O.3     1  UNL1       -0.3864
      8 O           2.5369    3.9050    0.0000 O.3     1  UNL1       -0.3865
      9 O           9.4651    8.9050    0.0000 O.3     1  UNL1       -0.3829
     10 O           9.4651    6.9050    0.0000 O.3     1  UNL1       -0.4290
     11 O          17.2594   -7.5950    0.0000 O.3     1  UNL1       -0.3312
     12 O           2.5369    6.9050    0.0000 O.3     1  UNL1       -0.3924
     13 O          19.8574   -8.0950    0.0000 O.3     1  UNL1       -0.3865
     14 O          19.8574   -6.0950    0.0000 O.3     1  UNL1       -0.3864
     15 O          18.1254   -5.0950    0.0000 O.3     1  UNL1       -0.3829
     16 O          16.3933   -6.0950    0.0000 O.3     1  UNL1       -0.4290
     17 O          17.2594   -9.5950    0.0000 O.3     1  UNL1       -0.3924
     18 O           8.5991    5.4050    0.0000 O.2     1  UNL1       -0.2452
     19 O          17.2594   -4.5950    0.0000 O.2     1  UNL1       -0.2452
     20 C           6.8671    7.4050    0.0000 C.3     1  UNL1        0.1144
     21 C           6.8671    8.4050    0.0000 C.3     1  UNL1        0.1120
     22 C           5.1350    4.4050    0.0000 C.3     1  UNL1        0.1341
     23 C           4.2690    3.9050    0.0000 C.3     1  UNL1        0.1141
     24 C           7.7331    8.9050    0.0000 C.3     1  UNL1        0.1152
     25 C           5.1350    5.4050    0.0000 C.3     1  UNL1        0.1880
     26 C           3.4030    4.4050    0.0000 C.3     1  UNL1        0.1119
     27 C           3.4030    5.4050    0.0000 C.3     1  UNL1        0.1130
     28 C           8.5991    8.4050    0.0000 C.3     1  UNL1        0.1455
     29 C           6.0010    6.9050    0.0000 C.3     1  UNL1        0.0796
     30 C           8.5991    7.4050    0.0000 C.3     1  UNL1        0.2341
     31 C           2.5369    5.9050    0.0000 C.3     1  UNL1        0.0730
     32 C          18.9914   -7.5950    0.0000 C.3     1  UNL1        0.1120
     33 C          18.9914   -6.5950    0.0000 C.3     1  UNL1        0.1152
     34 C          18.1254   -8.0950    0.0000 C.3     1  UNL1        0.1140
     35 C          18.1254   -6.0950    0.0000 C.3     1  UNL1        0.1455
     36 C          17.2594   -6.5950    0.0000 C.3     1  UNL1        0.2341
     37 C          18.1254   -9.0950    0.0000 C.3     1  UNL1        0.0731
     38 C           9.4651    5.9050    0.0000 C.2     1  UNL1        0.3371
     39 C          10.3312    5.4050    0.0000 C.2     1  UNL1        0.0336
     40 C          16.3933   -5.0950    0.0000 C.2     1  UNL1        0.3371
     41 C          11.1972    5.9050    0.0000 C.3     1  UNL1       -0.0329
     42 C          15.5273   -4.5950    0.0000 C.2     1  UNL1        0.0336
     43 C          10.3312    4.4050    0.0000 C.2     1  UNL1       -0.0521
     44 C          14.6613   -5.0950    0.0000 C.3     1  UNL1       -0.0329
     45 C          15.5273   -3.5950    0.0000 C.2     1  UNL1       -0.0521
     46 C          11.1972    3.9050    0.0000 C.2     1  UNL1       -0.0610
     47 C          14.6613   -3.0950    0.0000 C.2     1  UNL1       -0.0610
     48 C          11.1972    2.9050    0.0000 C.2     1  UNL1       -0.0588
     49 C          12.0632    2.4050    0.0000 C.2     1  UNL1       -0.0504
     50 C          14.6613   -2.0950    0.0000 C.2     1  UNL1       -0.0588
     51 C          13.7953   -1.5950    0.0000 C.2     1  UNL1       -0.0504
     52 C          12.9292    2.9050    0.0000 C.3     1  UNL1       -0.0397
     53 C          12.0632    1.4050    0.0000 C.2     1  UNL1       -0.0588
     54 C          13.7953   -0.5950    0.0000 C.2     1  UNL1       -0.0588
     55 C          12.9292   -2.0950    0.0000 C.3     1  UNL1       -0.0397
     56 C          12.9292    0.9050    0.0000 C.2     1  UNL1       -0.0615
     57 C          12.9292   -0.0950    0.0000 C.2     1  UNL1       -0.0615
     58 H           6.8671    6.7850    0.0000 H       1  UNL1        0.0647
     59 H           6.3301    8.0950    0.0000 H       1  UNL1        0.0647
     60 H           5.1350    3.7850    0.0000 H       1  UNL1        0.0671
     61 H           3.7320    3.5950    0.0000 H       1  UNL1        0.0648
     62 H           7.1962    9.2150    0.0000 H       1  UNL1        0.0648
     63 H           5.1350    6.0250    0.0000 H       1  UNL1        0.0937
     64 H           2.8660    4.7150    0.0000 H       1  UNL1        0.0647
     65 H           3.4030    6.0250    0.0000 H       1  UNL1        0.0647
     66 H           8.5991    9.0250    0.0000 H       1  UNL1        0.0683
     67 H           5.7890    7.4876    0.0000 H       1  UNL1        0.0587
     68 H           5.3905    6.7973    0.0000 H       1  UNL1        0.0587
     69 H           8.5991    6.7850    0.0000 H       1  UNL1        0.1085
     70 H           1.9264    6.0127    0.0000 H       1  UNL1        0.0584
     71 H           2.3249    5.3224    0.0000 H       1  UNL1        0.0584
     72 H          19.5284   -7.2850    0.0000 H       1  UNL1        0.0647
     73 H          18.9914   -5.9750    0.0000 H       1  UNL1        0.0648
     74 H          17.5885   -8.4050    0.0000 H       1  UNL1        0.0647
     75 H          17.5885   -5.7850    0.0000 H       1  UNL1        0.0683
     76 H           6.0010    9.5250    0.0000 H       1  UNL1        0.2100
     77 H          16.7224   -6.9050    0.0000 H       1  UNL1        0.1085
     78 H           6.5380    4.2150    0.0000 H       1  UNL1        0.2101
     79 H           3.7320    2.5950    0.0000 H       1  UNL1        0.2100
     80 H           8.2700   10.2150    0.0000 H       1  UNL1        0.2100
     81 H           2.0000    4.2150    0.0000 H       1  UNL1        0.2100
     82 H          10.0021    8.5950    0.0000 H       1  UNL1        0.2102
     83 H          18.3374   -9.6776    0.0000 H       1  UNL1        0.0584
     84 H          18.7360   -8.9873    0.0000 H       1  UNL1        0.0584
     85 H           2.0000    7.2150    0.0000 H       1  UNL1        0.2095
     86 H          19.8574   -8.7150    0.0000 H       1  UNL1        0.2100
     87 H          20.3944   -6.4050    0.0000 H       1  UNL1        0.2100
     88 H          18.6623   -4.7850    0.0000 H       1  UNL1        0.2102
     89 H          17.2594  -10.2150    0.0000 H       1  UNL1        0.2095
     90 H          11.5072    5.3681    0.0000 H       1  UNL1        0.0280
     91 H          11.7341    6.2150    0.0000 H       1  UNL1        0.0280
     92 H          10.8872    6.4419    0.0000 H       1  UNL1        0.0280
     93 H           9.7942    4.0950    0.0000 H       1  UNL1        0.0622
     94 H          14.3513   -4.5581    0.0000 H       1  UNL1        0.0280
     95 H          14.1244   -5.4050    0.0000 H       1  UNL1        0.0280
     96 H          14.9713   -5.6319    0.0000 H       1  UNL1        0.0280
     97 H          16.0643   -3.2850    0.0000 H       1  UNL1        0.0622
     98 H          11.7341    4.2150    0.0000 H       1  UNL1        0.0618
     99 H          14.1244   -3.4050    0.0000 H       1  UNL1        0.0618
    100 H          10.6603    2.5950    0.0000 H       1  UNL1        0.0620
    101 H          15.1982   -1.7850    0.0000 H       1  UNL1        0.0620
    102 H          13.2392    2.3681    0.0000 H       1  UNL1        0.0278
    103 H          13.4662    3.2150    0.0000 H       1  UNL1        0.0278
    104 H          12.6192    3.4419    0.0000 H       1  UNL1        0.0278
    105 H          11.5263    1.0950    0.0000 H       1  UNL1        0.0620
    106 H          14.3322   -0.2850    0.0000 H       1  UNL1        0.0620
    107 H          12.6192   -1.5581    0.0000 H       1  UNL1        0.0278
    108 H          12.3923   -2.4050    0.0000 H       1  UNL1        0.0278
    109 H          13.2392   -2.6319    0.0000 H       1  UNL1        0.0278
    110 H          13.4662    1.2150    0.0000 H       1  UNL1        0.0618
    111 H          12.3923   -0.4050    0.0000 H       1  UNL1        0.0618
@<TRIPOS>BOND
     1     1    25    1
     2     1    27    1
     3     2    20    1
     4     2    30    1
     5    25     3    1
     6     3    29    1
     7    21     4    1
     8     4    76    1
     9    22     5    1
    10     5    78    1
    11    23     6    1
    12     6    79    1
    13    24     7    1
    14     7    80    1
    15    26     8    1
    16     8    81    1
    17    28     9    1
    18     9    82    1
    19    30    10    1
    20    10    38    1
    21    11    34    1
    22    11    36    1
    23    12    31    1
    24    12    85    1
    25    32    13    1
    26    13    86    1
    27    33    14    1
    28    14    87    1
    29    35    15    1
    30    15    88    1
    31    36    16    1
    32    16    40    1
    33    17    37    1
    34    17    89    1
    35    18    38    2
    36    19    40    2
    37    20    21    1
    38    20    29    1
    39    20    58    1
    40    21    24    1
    41    21    59    1
    42    22    23    1
    43    22    25    1
    44    22    60    1
    45    23    26    1
    46    23    61    1
    47    24    28    1
    48    24    62    1
    49    25    63    1
    50    26    27    1
    51    26    64    1
    52    27    31    1
    53    27    65    1
    54    28    30    1
    55    28    66    1
    56    29    67    1
    57    29    68    1
    58    30    69    1
    59    31    70    1
    60    31    71    1
    61    32    33    1
    62    32    34    1
    63    32    72    1
    64    33    35    1
    65    33    73    1
    66    34    37    1
    67    34    74    1
    68    35    36    1
    69    35    75    1
    70    36    77    1
    71    37    83    1
    72    37    84    1
    73    38    39    1
    74    39    41    1
    75    39    43    2
    76    40    42    1
    77    41    90    1
    78    41    91    1
    79    41    92    1
    80    42    44    1
    81    42    45    2
    82    43    46    1
    83    43    93    1
    84    44    94    1
    85    44    95    1
    86    44    96    1
    87    45    47    1
    88    45    97    1
    89    46    48    2
    90    46    98    1
    91    47    50    2
    92    47    99    1
    93    48    49    1
    94    48   100    1
    95    49    52    1
    96    49    53    2
    97    50    51    1
    98    50   101    1
    99    51    54    2
   100    51    55    1
   101    52   102    1
   102    52   103    1
   103    52   104    1
   104    53    56    1
   105    53   105    1
   106    54    57    1
   107    54   106    1
   108    55   107    1
   109    55   108    1
   110    55   109    1
   111    56    57    2
   112    56   110    1
   113    57   111    1
