@<TRIPOS>MOLECULE
IMPHY002597
 63 65 0 0 0
SMALL
GASTEIGER

@<TRIPOS>ATOM
      1 O           6.3301    1.5000    0.0000 O.3     1  UNL1       -0.3827
      2 O           7.1962   -2.0000    0.0000 O.3     1  UNL1       -0.3827
      3 O          11.6065   -0.3047    0.0000 O.3     1  UNL1       -0.4525
      4 O          11.6065    1.3047    0.0000 O.3     1  UNL1       -0.4489
      5 O           9.7942    2.5000    0.0000 O.3     1  UNL1       -0.4913
      6 O           2.0000   -0.0000    0.0000 O.3     1  UNL1       -0.4914
      7 O           2.0000   -2.0000    0.0000 O.3     1  UNL1       -0.4915
      8 C           7.1962    0.0000    0.0000 C.3     1  UNL1       -0.0084
      9 C           6.3301   -0.5000    0.0000 C.3     1  UNL1       -0.0084
     10 C           8.0622   -0.5000    0.0000 C.3     1  UNL1       -0.0222
     11 C           5.4641   -0.0000    0.0000 C.3     1  UNL1       -0.0223
     12 C           7.1962    1.0000    0.0000 C.3     1  UNL1        0.0507
     13 C           6.3301   -1.5000    0.0000 C.3     1  UNL1        0.0507
     14 C           8.9282    0.0000    0.0000 C.ar    1  UNL1       -0.0399
     15 C           4.5981   -0.5000    0.0000 C.ar    1  UNL1       -0.0433
     16 C           9.7942   -0.5000    0.0000 C.ar    1  UNL1       -0.0127
     17 C           8.9282    1.0000    0.0000 C.ar    1  UNL1       -0.0129
     18 C           3.7320   -0.0000    0.0000 C.ar    1  UNL1       -0.0131
     19 C           4.5981   -1.5000    0.0000 C.ar    1  UNL1       -0.0549
     20 C          10.6603    0.0000    0.0000 C.ar    1  UNL1        0.1702
     21 C           9.7942    1.5000    0.0000 C.ar    1  UNL1        0.1656
     22 C          10.6603    1.0000    0.0000 C.ar    1  UNL1        0.2075
     23 C           2.8660   -0.5000    0.0000 C.ar    1  UNL1        0.1617
     24 C           3.7320   -2.0000    0.0000 C.ar    1  UNL1       -0.0160
     25 C           6.3301    2.5000    0.0000 C.3     1  UNL1        0.0365
     26 C           7.1962   -3.0000    0.0000 C.3     1  UNL1        0.0365
     27 C           2.8660   -1.5000    0.0000 C.ar    1  UNL1        0.1615
     28 C          12.1901    0.5000    0.0000 C.3     1  UNL1        0.2334
     29 C           8.9282    3.0000    0.0000 C.3     1  UNL1        0.0790
     30 C           2.0000    1.0000    0.0000 C.3     1  UNL1        0.0790
     31 C           2.0000   -3.0000    0.0000 C.3     1  UNL1        0.0790
     32 H           7.7331    0.3100    0.0000 H       1  UNL1        0.0330
     33 H           6.8671   -0.1900    0.0000 H       1  UNL1        0.0330
     34 H           7.6636   -0.9749    0.0000 H       1  UNL1        0.0317
     35 H           8.4607   -0.9749    0.0000 H       1  UNL1        0.0317
     36 H           5.8626    0.4749    0.0000 H       1  UNL1        0.0317
     37 H           5.0656    0.4749    0.0000 H       1  UNL1        0.0317
     38 H           7.8067    0.8923    0.0000 H       1  UNL1        0.0562
     39 H           7.4082    1.5826    0.0000 H       1  UNL1        0.0562
     40 H           5.7196   -1.3923    0.0000 H       1  UNL1        0.0562
     41 H           6.1181   -2.0826    0.0000 H       1  UNL1        0.0562
     42 H           9.7942   -1.1200    0.0000 H       1  UNL1        0.0658
     43 H           8.3913    1.3100    0.0000 H       1  UNL1        0.0658
     44 H           3.7320    0.6200    0.0000 H       1  UNL1        0.0658
     45 H           5.1350   -1.8100    0.0000 H       1  UNL1        0.0621
     46 H           3.7320   -2.6200    0.0000 H       1  UNL1        0.0655
     47 H           6.9501    2.5000    0.0000 H       1  UNL1        0.0523
     48 H           6.3301    3.1200    0.0000 H       1  UNL1        0.0523
     49 H           5.7101    2.5000    0.0000 H       1  UNL1        0.0523
     50 H           6.5762   -3.0000    0.0000 H       1  UNL1        0.0523
     51 H           7.1962   -3.6200    0.0000 H       1  UNL1        0.0523
     52 H           7.8162   -3.0000    0.0000 H       1  UNL1        0.0523
     53 H          12.6510    0.0853    0.0000 H       1  UNL1        0.1166
     54 H          12.6510    0.9147    0.0000 H       1  UNL1        0.1166
     55 H           9.2382    3.5369    0.0000 H       1  UNL1        0.0660
     56 H           8.3913    3.3100    0.0000 H       1  UNL1        0.0660
     57 H           8.6182    2.4631    0.0000 H       1  UNL1        0.0660
     58 H           2.6200    1.0000    0.0000 H       1  UNL1        0.0660
     59 H           2.0000    1.6200    0.0000 H       1  UNL1        0.0660
     60 H           1.3800    1.0000    0.0000 H       1  UNL1        0.0660
     61 H           1.3800   -3.0000    0.0000 H       1  UNL1        0.0660
     62 H           2.0000   -3.6200    0.0000 H       1  UNL1        0.0660
     63 H           2.6200   -3.0000    0.0000 H       1  UNL1        0.0660
@<TRIPOS>BOND
     1     1    12    1
     2     1    25    1
     3     2    13    1
     4     2    26    1
     5     3    20    1
     6     3    28    1
     7     4    22    1
     8     4    28    1
     9     5    21    1
    10     5    29    1
    11     6    23    1
    12     6    30    1
    13     7    27    1
    14     7    31    1
    15     8     9    1
    16     8    10    1
    17     8    12    1
    18     8    32    1
    19     9    11    1
    20     9    13    1
    21     9    33    1
    22    10    14    1
    23    10    34    1
    24    10    35    1
    25    11    15    1
    26    11    36    1
    27    11    37    1
    28    12    38    1
    29    12    39    1
    30    13    40    1
    31    13    41    1
    32    14    16   ar
    33    14    17   ar
    34    15    18   ar
    35    15    19   ar
    36    16    20   ar
    37    16    42    1
    38    17    21   ar
    39    17    43    1
    40    18    23   ar
    41    18    44    1
    42    19    24   ar
    43    19    45    1
    44    20    22   ar
    45    21    22   ar
    46    23    27   ar
    47    24    27   ar
    48    24    46    1
    49    25    47    1
    50    25    48    1
    51    25    49    1
    52    26    50    1
    53    26    51    1
    54    26    52    1
    55    28    53    1
    56    28    54    1
    57    29    55    1
    58    29    56    1
    59    29    57    1
    60    30    58    1
    61    30    59    1
    62    30    60    1
    63    31    61    1
    64    31    62    1
    65    31    63    1
