@<TRIPOS>MOLECULE
IMPHY007812
 145 152 0 0 0
SMALL
GASTEIGER

@<TRIPOS>ATOM
      1 O           6.8671   -1.4272    0.0000 O.3     1  UNL1       -0.3448
      2 O           8.6424    7.9272    0.0000 O.3     1  UNL1       -0.3912
      3 O           9.3112   -0.7356    0.0000 O.3     1  UNL1       -0.3944
      4 O           5.1350   -1.4272    0.0000 O.3     1  UNL1       -0.3315
      5 O           6.8671   -3.4272    0.0000 O.3     1  UNL1       -0.3377
      6 O           5.1350   -4.4272    0.0000 O.3     1  UNL1       -0.3864
      7 O           3.4030   -3.4272    0.0000 O.3     1  UNL1       -0.3860
      8 O           6.0010   -4.9272    0.0000 O.3     1  UNL1       -0.3405
      9 O           2.5369   -1.9272    0.0000 O.3     1  UNL1       -0.4788
     10 O           3.4030   -0.4273    0.0000 O.2     1  UNL1       -0.2480
     11 O           8.5991   -4.4272    0.0000 O.3     1  UNL1       -0.3378
     12 O           8.5991   -6.4272    0.0000 O.3     1  UNL1       -0.3864
     13 O           6.8671   -7.4272    0.0000 O.3     1  UNL1       -0.3865
     14 O           9.4651   -5.9272    0.0000 O.3     1  UNL1       -0.3405
     15 O           5.1350   -7.4272    0.0000 O.3     1  UNL1       -0.3924
     16 O          10.3312   -3.4272    0.0000 O.3     1  UNL1       -0.3841
     17 O          12.0632   -4.4272    0.0000 O.3     1  UNL1       -0.3864
     18 O          12.0632   -6.4272    0.0000 O.3     1  UNL1       -0.3865
     19 O          11.1972   -7.9272    0.0000 O.3     1  UNL1       -0.3924
     20 C           7.7681    3.2730    0.0000 C.3     1  UNL1       -0.0194
     21 C           6.9040    2.7696    0.0000 C.3     1  UNL1       -0.0257
     22 C           6.8920    1.7281    0.0000 C.3     1  UNL1       -0.0249
     23 C           7.7643    4.2730    0.0000 C.3     1  UNL1       -0.0051
     24 C           7.7920    1.2038    0.0000 C.3     1  UNL1       -0.0255
     25 C           8.6801    2.7696    0.0000 C.3     1  UNL1       -0.0463
     26 C           6.8963    4.7696    0.0000 C.2     1  UNL1       -0.0633
     27 C           7.8046    0.1189    0.0000 C.3     1  UNL1        0.0206
     28 C           8.6921    1.7281    0.0000 C.3     1  UNL1       -0.0485
     29 C           6.8762    5.8111    0.0000 C.3     1  UNL1       -0.0111
     30 C           7.7722    6.3423    0.0000 C.3     1  UNL1        0.0005
     31 C           6.0361    3.2663    0.0000 C.3     1  UNL1       -0.0306
     32 C           8.6723    4.7833    0.0000 C.3     1  UNL1       -0.0428
     33 C           5.9421    1.2038    0.0000 C.3     1  UNL1       -0.0447
     34 C           8.6763    5.8249    0.0000 C.3     1  UNL1       -0.0439
     35 C           8.7522    3.4504    0.0000 C.3     1  UNL1       -0.0585
     36 C           6.8671   -0.4273    0.0000 C.3     1  UNL1        0.0695
     37 C           6.0322    4.2663    0.0000 C.2     1  UNL1       -0.0836
     38 C           6.0279    2.2314    0.0000 C.3     1  UNL1       -0.0590
     39 C           5.9295    0.1189    0.0000 C.3     1  UNL1       -0.0254
     40 C           8.7497    4.1031    0.0000 C.3     1  UNL1       -0.0553
     41 C           5.9223    6.3280    0.0000 C.3     1  UNL1       -0.0406
     42 C           7.7764    7.4272    0.0000 C.3     1  UNL1        0.0616
     43 C           5.9014    7.4128    0.0000 C.3     1  UNL1       -0.0320
     44 C           6.8347    7.9661    0.0000 C.3     1  UNL1       -0.0211
     45 C           8.8046    0.1266    0.0000 C.3     1  UNL1        0.0522
     46 C           8.3113   -0.7433    0.0000 C.3     1  UNL1       -0.0548
     47 C           8.6324    6.8522    0.0000 C.3     1  UNL1       -0.0567
     48 C           5.3881    8.2710    0.0000 C.3     1  UNL1       -0.0597
     49 C           4.9015    7.3974    0.0000 C.3     1  UNL1       -0.0597
     50 C           6.0010   -1.9272    0.0000 C.3     1  UNL1        0.1892
     51 C           6.0010   -2.9272    0.0000 C.3     1  UNL1        0.1407
     52 C           5.1350   -3.4272    0.0000 C.3     1  UNL1        0.1149
     53 C           4.2690   -1.9272    0.0000 C.3     1  UNL1        0.1859
     54 C           4.2690   -2.9272    0.0000 C.3     1  UNL1        0.1202
     55 C           6.8671   -4.4272    0.0000 C.3     1  UNL1        0.1889
     56 C           3.4030   -1.4272    0.0000 C.2     1  UNL1        0.3367
     57 C           7.7331   -4.9272    0.0000 C.3     1  UNL1        0.1406
     58 C           7.7331   -5.9272    0.0000 C.3     1  UNL1        0.1144
     59 C           6.0010   -5.9272    0.0000 C.3     1  UNL1        0.1130
     60 C           6.8671   -6.4272    0.0000 C.3     1  UNL1        0.1119
     61 C           5.1350   -6.4272    0.0000 C.3     1  UNL1        0.0730
     62 C           9.4651   -4.9272    0.0000 C.3     1  UNL1        0.1885
     63 C          10.3312   -4.4272    0.0000 C.3     1  UNL1        0.1341
     64 C          11.1972   -4.9272    0.0000 C.3     1  UNL1        0.1141
     65 C          10.3312   -6.4272    0.0000 C.3     1  UNL1        0.1130
     66 C          11.1972   -5.9272    0.0000 C.3     1  UNL1        0.1119
     67 C          10.3312   -7.4272    0.0000 C.3     1  UNL1        0.0730
     68 H           7.6385    2.3418    0.0000 H       1  UNL1        0.0315
     69 H           8.5314    0.7845    0.0000 H       1  UNL1        0.0313
     70 H           9.2921    2.6706    0.0000 H       1  UNL1        0.0271
     71 H           8.8824    3.3557    0.0000 H       1  UNL1        0.0271
     72 H           8.9079    1.1468    0.0000 H       1  UNL1        0.0268
     73 H           9.3017    1.8412    0.0000 H       1  UNL1        0.0268
     74 H           6.1502    5.3692    0.0000 H       1  UNL1        0.0352
     75 H           5.4251    3.3716    0.0000 H       1  UNL1        0.0310
     76 H           5.8263    2.6829    0.0000 H       1  UNL1        0.0310
     77 H           8.8791    4.1988    0.0000 H       1  UNL1        0.0274
     78 H           9.2836    4.8870    0.0000 H       1  UNL1        0.0274
     79 H           5.7398    1.7898    0.0000 H       1  UNL1        0.0271
     80 H           5.3300    1.1048    0.0000 H       1  UNL1        0.0271
     81 H           9.2868    5.7165    0.0000 H       1  UNL1        0.0272
     82 H           8.8876    6.4078    0.0000 H       1  UNL1        0.0272
     83 H           8.8623    2.8402    0.0000 H       1  UNL1        0.0235
     84 H           9.3624    3.5604    0.0000 H       1  UNL1        0.0235
     85 H           8.6422    4.0606    0.0000 H       1  UNL1        0.0235
     86 H           7.4046   -0.7362    0.0000 H       1  UNL1        0.0603
     87 H           5.4941    4.5742    0.0000 H       1  UNL1        0.0572
     88 H           6.3400    2.7671    0.0000 H       1  UNL1        0.0235
     89 H           5.4922    2.5435    0.0000 H       1  UNL1        0.0235
     90 H           5.7158    1.6957    0.0000 H       1  UNL1        0.0235
     91 H           5.3199    0.2320    0.0000 H       1  UNL1        0.0290
     92 H           5.7137   -0.4624    0.0000 H       1  UNL1        0.0290
     93 H           8.6444    3.4921    0.0000 H       1  UNL1        0.0238
     94 H           9.3607    3.9978    0.0000 H       1  UNL1        0.0238
     95 H           8.8550    4.7141    0.0000 H       1  UNL1        0.0238
     96 H           5.3095    6.4223    0.0000 H       1  UNL1        0.0276
     97 H           5.7246    5.7404    0.0000 H       1  UNL1        0.0276
     98 H           7.7752    8.0472    0.0000 H       1  UNL1        0.0599
     99 H           7.2302    8.4436    0.0000 H       1  UNL1        0.0295
    100 H           6.4319    8.4375    0.0000 H       1  UNL1        0.0295
    101 H           9.3855    0.3431    0.0000 H       1  UNL1        0.0563
    102 H           8.6922    0.7363    0.0000 H       1  UNL1        0.0563
    103 H           7.7767   -1.0574    0.0000 H       1  UNL1        0.0237
    104 H           8.6254   -1.2778    0.0000 H       1  UNL1        0.0237
    105 H           8.8458   -0.4292    0.0000 H       1  UNL1        0.0237
    106 H           8.9486    6.3189    0.0000 H       1  UNL1        0.0236
    107 H           9.1657    7.1684    0.0000 H       1  UNL1        0.0236
    108 H           8.3162    7.3856    0.0000 H       1  UNL1        0.0236
    109 H           4.8920    8.0173    0.0000 H       1  UNL1        0.0235
    110 H           4.2816    7.3878    0.0000 H       1  UNL1        0.0235
    111 H           5.9202    8.5892    0.0000 H       1  UNL1        0.0235
    112 H           5.0699    8.8031    0.0000 H       1  UNL1        0.0235
    113 H           4.9111    6.7775    0.0000 H       1  UNL1        0.0235
    114 H           4.8560    7.9528    0.0000 H       1  UNL1        0.0235
    115 H           8.6424    8.5472    0.0000 H       1  UNL1        0.2098
    116 H           6.0010   -1.3072    0.0000 H       1  UNL1        0.0938
    117 H           9.9312   -0.7308    0.0000 H       1  UNL1        0.2094
    118 H           6.5380   -2.6172    0.0000 H       1  UNL1        0.0675
    119 H           5.6720   -3.7372    0.0000 H       1  UNL1        0.0648
    120 H           4.2690   -1.3072    0.0000 H       1  UNL1        0.0741
    121 H           3.7320   -2.6172    0.0000 H       1  UNL1        0.0652
    122 H           7.4040   -4.1172    0.0000 H       1  UNL1        0.0938
    123 H           4.5981   -4.7373    0.0000 H       1  UNL1        0.2100
    124 H           3.4030   -4.0472    0.0000 H       1  UNL1        0.2100
    125 H           8.2700   -5.2373    0.0000 H       1  UNL1        0.0675
    126 H           7.7331   -6.5472    0.0000 H       1  UNL1        0.0648
    127 H           5.4641   -5.6172    0.0000 H       1  UNL1        0.0647
    128 H           2.0000   -1.6172    0.0000 H       1  UNL1        0.2951
    129 H           6.3301   -6.7372    0.0000 H       1  UNL1        0.0647
    130 H           4.9230   -5.8446    0.0000 H       1  UNL1        0.0584
    131 H           4.5244   -6.5349    0.0000 H       1  UNL1        0.0584
    132 H           9.4651   -4.3072    0.0000 H       1  UNL1        0.0938
    133 H           8.5991   -7.0472    0.0000 H       1  UNL1        0.2100
    134 H           7.4040   -7.7372    0.0000 H       1  UNL1        0.2100
    135 H          10.8681   -4.1172    0.0000 H       1  UNL1        0.0671
    136 H          11.7341   -5.2373    0.0000 H       1  UNL1        0.0648
    137 H           4.5981   -7.7372    0.0000 H       1  UNL1        0.2095
    138 H           9.7942   -6.7372    0.0000 H       1  UNL1        0.0647
    139 H          11.1972   -6.5472    0.0000 H       1  UNL1        0.0647
    140 H          10.8681   -3.1172    0.0000 H       1  UNL1        0.2101
    141 H           9.7206   -7.3196    0.0000 H       1  UNL1        0.0584
    142 H          10.1191   -8.0099    0.0000 H       1  UNL1        0.0584
    143 H          12.6002   -4.7373    0.0000 H       1  UNL1        0.2100
    144 H          12.6002   -6.1172    0.0000 H       1  UNL1        0.2100
    145 H          11.1972   -8.5472    0.0000 H       1  UNL1        0.2095
@<TRIPOS>BOND
     1    36     1    1
     2    50     1    1
     3    42     2    1
     4     2   115    1
     5     3    45    1
     6     3   117    1
     7     4    50    1
     8     4    53    1
     9    51     5    1
    10    55     5    1
    11    52     6    1
    12     6   123    1
    13    54     7    1
    14     7   124    1
    15     8    55    1
    16     8    59    1
    17     9    56    1
    18     9   128    1
    19    10    56    2
    20    57    11    1
    21    62    11    1
    22    58    12    1
    23    12   133    1
    24    60    13    1
    25    13   134    1
    26    14    62    1
    27    14    65    1
    28    15    61    1
    29    15   137    1
    30    63    16    1
    31    16   140    1
    32    64    17    1
    33    17   143    1
    34    66    18    1
    35    18   144    1
    36    19    67    1
    37    19   145    1
    38    20    21    1
    39    20    23    1
    40    20    25    1
    41    20    35    1
    42    21    22    1
    43    21    31    1
    44    21    68    1
    45    22    24    1
    46    22    33    1
    47    22    38    1
    48    23    26    1
    49    23    32    1
    50    23    40    1
    51    24    27    1
    52    24    28    1
    53    24    69    1
    54    25    28    1
    55    25    70    1
    56    25    71    1
    57    26    29    1
    58    26    37    2
    59    27    36    1
    60    27    45    1
    61    27    46    1
    62    28    72    1
    63    28    73    1
    64    29    30    1
    65    29    41    1
    66    29    74    1
    67    30    34    1
    68    30    42    1
    69    30    47    1
    70    31    37    1
    71    31    75    1
    72    31    76    1
    73    32    34    1
    74    32    77    1
    75    32    78    1
    76    33    39    1
    77    33    79    1
    78    33    80    1
    79    34    81    1
    80    34    82    1
    81    35    83    1
    82    35    84    1
    83    35    85    1
    84    36    39    1
    85    36    86    1
    86    37    87    1
    87    38    88    1
    88    38    89    1
    89    38    90    1
    90    39    91    1
    91    39    92    1
    92    40    93    1
    93    40    94    1
    94    40    95    1
    95    41    43    1
    96    41    96    1
    97    41    97    1
    98    42    44    1
    99    42    98    1
   100    43    44    1
   101    43    48    1
   102    43    49    1
   103    44    99    1
   104    44   100    1
   105    45   101    1
   106    45   102    1
   107    46   103    1
   108    46   104    1
   109    46   105    1
   110    47   106    1
   111    47   107    1
   112    47   108    1
   113    48   111    1
   114    48   112    1
   115    48   114    1
   116    49   109    1
   117    49   110    1
   118    49   113    1
   119    50    51    1
   120    50   116    1
   121    51    52    1
   122    51   118    1
   123    52    54    1
   124    52   119    1
   125    53    54    1
   126    53    56    1
   127    53   120    1
   128    54   121    1
   129    55    57    1
   130    55   122    1
   131    57    58    1
   132    57   125    1
   133    58    60    1
   134    58   126    1
   135    59    60    1
   136    59    61    1
   137    59   127    1
   138    60   129    1
   139    61   130    1
   140    61   131    1
   141    62    63    1
   142    62   132    1
   143    63    64    1
   144    63   135    1
   145    64    66    1
   146    64   136    1
   147    65    66    1
   148    65    67    1
   149    65   138    1
   150    66   139    1
   151    67   141    1
   152    67   142    1
