@<TRIPOS>MOLECULE
IMPHY015721
 38 37 0 0 0
SMALL
GASTEIGER

@<TRIPOS>ATOM
      1 O           8.0622    0.7500    0.0000 O.3     1  UNL1       -0.4646
      2 O           8.9282   -0.7500    0.0000 O.2     1  UNL1       -0.2508
      3 C           4.5981    0.7500    0.0000 C.3     1  UNL1       -0.0530
      4 C           5.4641    0.2500    0.0000 C.3     1  UNL1       -0.0500
      5 C           3.7320    0.2500    0.0000 C.3     1  UNL1       -0.0533
      6 C           6.3301    0.7500    0.0000 C.3     1  UNL1       -0.0185
      7 C           2.8660    0.7500    0.0000 C.3     1  UNL1       -0.0559
      8 C           7.1962    0.2500    0.0000 C.3     1  UNL1        0.0925
      9 C          10.6603    0.2500    0.0000 C.3     1  UNL1       -0.0367
     10 C           9.7942    0.7500    0.0000 C.3     1  UNL1        0.0473
     11 C           2.0000    0.2500    0.0000 C.3     1  UNL1       -0.0653
     12 C           8.9282    0.2500    0.0000 C.2     1  UNL1        0.3073
     13 C          11.5263    0.7500    0.0000 C.3     1  UNL1       -0.0622
     14 C          10.6603   -0.7500    0.0000 C.3     1  UNL1       -0.0622
     15 H           4.9966    1.2250    0.0000 H       1  UNL1        0.0265
     16 H           4.1996    1.2250    0.0000 H       1  UNL1        0.0265
     17 H           5.0656   -0.2249    0.0000 H       1  UNL1        0.0266
     18 H           5.8626   -0.2249    0.0000 H       1  UNL1        0.0266
     19 H           3.3335   -0.2249    0.0000 H       1  UNL1        0.0265
     20 H           4.1306   -0.2249    0.0000 H       1  UNL1        0.0265
     21 H           6.7287    1.2250    0.0000 H       1  UNL1        0.0298
     22 H           5.9316    1.2250    0.0000 H       1  UNL1        0.0298
     23 H           3.2646    1.2250    0.0000 H       1  UNL1        0.0263
     24 H           2.4675    1.2250    0.0000 H       1  UNL1        0.0263
     25 H           6.7976   -0.2249    0.0000 H       1  UNL1        0.0697
     26 H           7.5947   -0.2249    0.0000 H       1  UNL1        0.0697
     27 H          11.1972   -0.0600    0.0000 H       1  UNL1        0.0301
     28 H          10.1928    1.2250    0.0000 H       1  UNL1        0.0380
     29 H           9.3957    1.2250    0.0000 H       1  UNL1        0.0380
     30 H           1.6900    0.7869    0.0000 H       1  UNL1        0.0230
     31 H           1.4631   -0.0600    0.0000 H       1  UNL1        0.0230
     32 H           2.3100   -0.2869    0.0000 H       1  UNL1        0.0230
     33 H          11.8363    0.2131    0.0000 H       1  UNL1        0.0232
     34 H          12.0632    1.0600    0.0000 H       1  UNL1        0.0232
     35 H          11.2163    1.2869    0.0000 H       1  UNL1        0.0232
     36 H          10.0403   -0.7500    0.0000 H       1  UNL1        0.0232
     37 H          10.6603   -1.3700    0.0000 H       1  UNL1        0.0232
     38 H          11.2803   -0.7500    0.0000 H       1  UNL1        0.0232
@<TRIPOS>BOND
     1     1     8    1
     2     1    12    1
     3     2    12    2
     4     3     4    1
     5     3     5    1
     6     3    15    1
     7     3    16    1
     8     4     6    1
     9     4    17    1
    10     4    18    1
    11     5     7    1
    12     5    19    1
    13     5    20    1
    14     6     8    1
    15     6    21    1
    16     6    22    1
    17     7    11    1
    18     7    23    1
    19     7    24    1
    20     8    25    1
    21     8    26    1
    22     9    10    1
    23     9    13    1
    24     9    14    1
    25     9    27    1
    26    10    12    1
    27    10    28    1
    28    10    29    1
    29    11    30    1
    30    11    31    1
    31    11    32    1
    32    13    33    1
    33    13    34    1
    34    13    35    1
    35    14    36    1
    36    14    37    1
    37    14    38    1
