@<TRIPOS>MOLECULE
IMPHY002063
 21 20 0 0 0
SMALL
GASTEIGER

@<TRIPOS>ATOM
      1 O           6.3301    0.2500    0.0000 O.3     1  UNL1       -0.3950
      2 C           2.8660    0.2500    0.0000 C.3     1  UNL1       -0.0466
      3 C           3.7320    0.7500    0.0000 C.3     1  UNL1       -0.0486
      4 C           4.5981    0.2500    0.0000 C.3     1  UNL1       -0.0295
      5 C           2.0000    0.7500    0.0000 C.3     1  UNL1       -0.0627
      6 C           2.8660   -0.7500    0.0000 C.3     1  UNL1       -0.0627
      7 C           5.4641    0.7500    0.0000 C.3     1  UNL1        0.0442
      8 H           2.8660    0.8700    0.0000 H       1  UNL1        0.0295
      9 H           4.1306    1.2250    0.0000 H       1  UNL1        0.0268
     10 H           3.3335    1.2250    0.0000 H       1  UNL1        0.0268
     11 H           4.1996   -0.2249    0.0000 H       1  UNL1        0.0287
     12 H           4.9966   -0.2249    0.0000 H       1  UNL1        0.0287
     13 H           2.3100    1.2869    0.0000 H       1  UNL1        0.0232
     14 H           1.4631    1.0600    0.0000 H       1  UNL1        0.0232
     15 H           1.6900    0.2131    0.0000 H       1  UNL1        0.0232
     16 H           2.2460   -0.7500    0.0000 H       1  UNL1        0.0232
     17 H           2.8660   -1.3700    0.0000 H       1  UNL1        0.0232
     18 H           3.4860   -0.7500    0.0000 H       1  UNL1        0.0232
     19 H           5.8626    1.2250    0.0000 H       1  UNL1        0.0557
     20 H           5.0656    1.2250    0.0000 H       1  UNL1        0.0557
     21 H           6.8671    0.5600    0.0000 H       1  UNL1        0.2094
@<TRIPOS>BOND
     1     1     7    1
     2     1    21    1
     3     2     3    1
     4     2     5    1
     5     2     6    1
     6     2     8    1
     7     3     4    1
     8     3     9    1
     9     3    10    1
    10     4     7    1
    11     4    11    1
    12     4    12    1
    13     5    13    1
    14     5    14    1
    15     5    15    1
    16     6    16    1
    17     6    17    1
    18     6    18    1
    19     7    19    1
    20     7    20    1
