@<TRIPOS>MOLECULE
IMPHY004102
 98 103 0 0 0
SMALL
GASTEIGER

@<TRIPOS>ATOM
      1 O           8.9765    0.4775    0.0000 O.3     1  UNL1       -0.3712
      2 O           6.0580   -0.4708    0.0000 O.3     1  UNL1       -0.3712
      3 O           8.1797    5.0625    0.0000 O.3     1  UNL1       -0.4535
      4 O           6.8671   -5.0586    0.0000 O.3     1  UNL1       -0.4535
      5 O           6.4460    4.0655    0.0000 O.3     1  UNL1       -0.4913
      6 O           8.5991   -4.0586    0.0000 O.3     1  UNL1       -0.4913
      7 O           9.9100    4.0595    0.0000 O.3     1  UNL1       -0.4913
      8 O           5.1350   -4.0586    0.0000 O.3     1  UNL1       -0.4913
      9 O           5.1350   -5.0586    0.0000 O.3     1  UNL1       -0.3313
     10 O           9.9118    5.0595    0.0000 O.3     1  UNL1       -0.3313
     11 O           8.1832    7.0625    0.0000 O.3     1  UNL1       -0.3829
     12 O           6.8671   -7.0586    0.0000 O.3     1  UNL1       -0.3829
     13 O           9.9170    8.0595    0.0000 O.3     1  UNL1       -0.3864
     14 O           5.1350   -8.0586    0.0000 O.3     1  UNL1       -0.3864
     15 O          11.6473    7.0565    0.0000 O.3     1  UNL1       -0.3865
     16 O           3.4030   -7.0586    0.0000 O.3     1  UNL1       -0.3865
     17 O           2.5369   -5.5586    0.0000 O.3     1  UNL1       -0.3924
     18 O          11.6421    4.0565    0.0000 O.3     1  UNL1       -0.3924
     19 C           7.6761   -0.4708    0.0000 C.3     1  UNL1        0.0205
     20 C           7.3671    0.4803    0.0000 C.3     1  UNL1        0.0205
     21 C           8.1728    1.0625    0.0000 C.3     1  UNL1        0.0892
     22 C           6.8671   -1.0586    0.0000 C.3     1  UNL1        0.0892
     23 C           6.3671    0.4803    0.0000 C.3     1  UNL1        0.0544
     24 C           8.6702   -0.4682    0.0000 C.3     1  UNL1        0.0544
     25 C           6.8671   -2.0586    0.0000 C.ar    1  UNL1       -0.0114
     26 C           8.1745    2.0625    0.0000 C.ar    1  UNL1       -0.0114
     27 C           9.0414    2.5610    0.0000 C.ar    1  UNL1       -0.0104
     28 C           6.0010   -2.5586    0.0000 C.ar    1  UNL1       -0.0104
     29 C           7.3094    2.5640    0.0000 C.ar    1  UNL1       -0.0104
     30 C           7.7331   -2.5586    0.0000 C.ar    1  UNL1       -0.0104
     31 C           7.7331   -3.5586    0.0000 C.ar    1  UNL1        0.1656
     32 C           7.3111    3.5640    0.0000 C.ar    1  UNL1        0.1656
     33 C           6.0010   -3.5586    0.0000 C.ar    1  UNL1        0.1656
     34 C           9.0432    3.5610    0.0000 C.ar    1  UNL1        0.1656
     35 C           8.1780    4.0625    0.0000 C.ar    1  UNL1        0.2067
     36 C           6.8671   -4.0586    0.0000 C.ar    1  UNL1        0.2067
     37 C           6.0010   -5.5586    0.0000 C.3     1  UNL1        0.2311
     38 C           9.0466    5.5610    0.0000 C.3     1  UNL1        0.2311
     39 C           6.0010   -6.5586    0.0000 C.3     1  UNL1        0.1454
     40 C           9.0483    6.5610    0.0000 C.3     1  UNL1        0.1454
     41 C           5.1350   -7.0586    0.0000 C.3     1  UNL1        0.1152
     42 C           9.9152    7.0595    0.0000 C.3     1  UNL1        0.1152
     43 C           4.2690   -6.5586    0.0000 C.3     1  UNL1        0.1120
     44 C          10.7804    6.5580    0.0000 C.3     1  UNL1        0.1120
     45 C           4.2690   -5.5586    0.0000 C.3     1  UNL1        0.1140
     46 C          10.7787    5.5580    0.0000 C.3     1  UNL1        0.1140
     47 C           3.4030   -5.0586    0.0000 C.3     1  UNL1        0.0731
     48 C          11.6438    5.0565    0.0000 C.3     1  UNL1        0.0731
     49 C           5.5791    3.5670    0.0000 C.3     1  UNL1        0.0790
     50 C           9.4651   -3.5586    0.0000 C.3     1  UNL1        0.0790
     51 C          10.7752    3.5580    0.0000 C.3     1  UNL1        0.0790
     52 C           4.2690   -3.5586    0.0000 C.3     1  UNL1        0.0790
     53 H           7.9398   -1.2788    0.0000 H       1  UNL1        0.0356
     54 H           7.1054    1.2890    0.0000 H       1  UNL1        0.0356
     55 H           8.7256    1.3432    0.0000 H       1  UNL1        0.0650
     56 H           6.3146   -1.3400    0.0000 H       1  UNL1        0.0650
     57 H           8.6066   -1.0849    0.0000 H       1  UNL1        0.0564
     58 H           9.2768   -0.5962    0.0000 H       1  UNL1        0.0564
     59 H           6.4319    1.0969    0.0000 H       1  UNL1        0.0564
     60 H           5.7606    0.6092    0.0000 H       1  UNL1        0.0564
     61 H           5.4641   -2.2486    0.0000 H       1  UNL1        0.0659
     62 H           9.5778    2.2501    0.0000 H       1  UNL1        0.0659
     63 H           8.2700   -2.2486    0.0000 H       1  UNL1        0.0659
     64 H           6.7719    2.2549    0.0000 H       1  UNL1        0.0659
     65 H           8.5102    5.8719    0.0000 H       1  UNL1        0.1084
     66 H           6.0010   -4.9386    0.0000 H       1  UNL1        0.1084
     67 H           9.0494    7.1810    0.0000 H       1  UNL1        0.0683
     68 H           6.0010   -7.1786    0.0000 H       1  UNL1        0.0683
     69 H           4.5981   -7.3686    0.0000 H       1  UNL1        0.0648
     70 H          10.4527    7.3686    0.0000 H       1  UNL1        0.0648
     71 H          11.3168    6.2471    0.0000 H       1  UNL1        0.0647
     72 H           3.7320   -6.2486    0.0000 H       1  UNL1        0.0647
     73 H           4.2690   -4.9386    0.0000 H       1  UNL1        0.0647
     74 H          10.7776    4.9380    0.0000 H       1  UNL1        0.0647
     75 H          12.2542    4.9478    0.0000 H       1  UNL1        0.0584
     76 H          11.8569    5.6387    0.0000 H       1  UNL1        0.0584
     77 H           3.8015   -4.5836    0.0000 H       1  UNL1        0.0584
     78 H           3.0044   -4.5836    0.0000 H       1  UNL1        0.0584
     79 H           9.7751   -4.0955    0.0000 H       1  UNL1        0.0660
     80 H          10.0021   -3.2486    0.0000 H       1  UNL1        0.0660
     81 H           9.1551   -3.0216    0.0000 H       1  UNL1        0.0660
     82 H           5.2700    4.1045    0.0000 H       1  UNL1        0.0660
     83 H           5.0416    3.2579    0.0000 H       1  UNL1        0.0660
     84 H           5.8881    3.0295    0.0000 H       1  UNL1        0.0660
     85 H           4.5790   -3.0216    0.0000 H       1  UNL1        0.0660
     86 H           3.7320   -3.2486    0.0000 H       1  UNL1        0.0660
     87 H           3.9590   -4.0955    0.0000 H       1  UNL1        0.0660
     88 H          10.4643    3.0216    0.0000 H       1  UNL1        0.0660
     89 H          11.3116    3.2471    0.0000 H       1  UNL1        0.0660
     90 H          11.0861    4.0944    0.0000 H       1  UNL1        0.0660
     91 H           8.1843    7.6825    0.0000 H       1  UNL1        0.2102
     92 H           7.4040   -6.7486    0.0000 H       1  UNL1        0.2102
     93 H          10.4544    8.3686    0.0000 H       1  UNL1        0.2100
     94 H           5.6720   -8.3686    0.0000 H       1  UNL1        0.2100
     95 H          12.1837    6.7456    0.0000 H       1  UNL1        0.2100
     96 H           3.4030   -7.6786    0.0000 H       1  UNL1        0.2100
     97 H          12.1785    3.7456    0.0000 H       1  UNL1        0.2095
     98 H           2.0000   -5.2486    0.0000 H       1  UNL1        0.2095
@<TRIPOS>BOND
     1     1    21    1
     2     1    24    1
     3     2    22    1
     4     2    23    1
     5     3    35    1
     6    38     3    1
     7     4    36    1
     8    37     4    1
     9     5    32    1
    10     5    49    1
    11     6    31    1
    12     6    50    1
    13     7    34    1
    14     7    51    1
    15     8    33    1
    16     8    52    1
    17     9    37    1
    18     9    45    1
    19    10    38    1
    20    10    46    1
    21    40    11    1
    22    11    91    1
    23    39    12    1
    24    12    92    1
    25    42    13    1
    26    13    93    1
    27    41    14    1
    28    14    94    1
    29    44    15    1
    30    15    95    1
    31    43    16    1
    32    16    96    1
    33    17    47    1
    34    17    98    1
    35    18    48    1
    36    18    97    1
    37    19    20    1
    38    19    22    1
    39    19    24    1
    40    19    53    1
    41    20    21    1
    42    20    23    1
    43    20    54    1
    44    21    26    1
    45    21    55    1
    46    22    25    1
    47    22    56    1
    48    23    59    1
    49    23    60    1
    50    24    57    1
    51    24    58    1
    52    25    28   ar
    53    25    30   ar
    54    26    27   ar
    55    26    29   ar
    56    27    34   ar
    57    27    62    1
    58    28    33   ar
    59    28    61    1
    60    29    32   ar
    61    29    64    1
    62    30    31   ar
    63    30    63    1
    64    31    36   ar
    65    32    35   ar
    66    33    36   ar
    67    34    35   ar
    68    37    39    1
    69    37    66    1
    70    38    40    1
    71    38    65    1
    72    39    41    1
    73    39    68    1
    74    40    42    1
    75    40    67    1
    76    41    43    1
    77    41    69    1
    78    42    44    1
    79    42    70    1
    80    43    45    1
    81    43    72    1
    82    44    46    1
    83    44    71    1
    84    45    47    1
    85    45    73    1
    86    46    48    1
    87    46    74    1
    88    47    77    1
    89    47    78    1
    90    48    75    1
    91    48    76    1
    92    49    82    1
    93    49    83    1
    94    49    84    1
    95    50    79    1
    96    50    80    1
    97    50    81    1
    98    51    88    1
    99    51    89    1
   100    51    90    1
   101    52    85    1
   102    52    86    1
   103    52    87    1
