@<TRIPOS>MOLECULE
IMPHY014610
 75 79 0 0 0
SMALL
GASTEIGER

@<TRIPOS>ATOM
      1 O           6.8671   -1.7856    0.0000 O.3     1  UNL1       -0.3313
      2 O           6.0010   -4.2857    0.0000 O.3     1  UNL1       -0.3461
      3 O           4.2690   -4.2857    0.0000 O.3     1  UNL1       -0.3431
      4 O           7.7331   -4.2857    0.0000 O.3     1  UNL1       -0.3865
      5 O           9.4651   -3.2856    0.0000 O.3     1  UNL1       -0.3864
      6 O           7.7331   -0.2856    0.0000 O.3     1  UNL1       -0.4569
      7 O           9.4651   -1.2856    0.0000 O.3     1  UNL1       -0.3829
      8 O           6.0010   -6.2857    0.0000 O.3     1  UNL1       -0.3841
      9 O           4.2690   -7.2856    0.0000 O.3     1  UNL1       -0.3864
     10 O           2.5369   -6.2857    0.0000 O.3     1  UNL1       -0.3866
     11 O           6.0010   -1.2856    0.0000 O.3     1  UNL1       -0.4885
     12 O           6.0171    2.7559    0.0000 O.2     1  UNL1       -0.4544
     13 O           4.2690   -0.2856    0.0000 O.3     1  UNL1       -0.5027
     14 O           3.3648    1.2112    0.0000 O.2     1  UNL1       -0.2869
     15 O           5.1345    7.2836    0.0000 O.3     1  UNL1       -0.5068
     16 C           6.8671   -2.7856    0.0000 C.3     1  UNL1        0.1144
     17 C           7.7331   -3.2856    0.0000 C.3     1  UNL1        0.1120
     18 C           8.5991   -2.7856    0.0000 C.3     1  UNL1        0.1152
     19 C           8.5991   -1.7856    0.0000 C.3     1  UNL1        0.1454
     20 C           5.1350   -5.7857    0.0000 C.3     1  UNL1        0.1341
     21 C           5.1350   -4.7857    0.0000 C.3     1  UNL1        0.1879
     22 C           4.2690   -6.2857    0.0000 C.3     1  UNL1        0.1140
     23 C           3.4030   -5.7857    0.0000 C.3     1  UNL1        0.1095
     24 C           7.7331   -1.2856    0.0000 C.3     1  UNL1        0.2310
     25 C           6.0010   -3.2856    0.0000 C.3     1  UNL1        0.0796
     26 C           3.4030   -4.7857    0.0000 C.3     1  UNL1        0.0873
     27 C           2.5369   -4.2857    0.0000 C.3     1  UNL1       -0.0361
     28 C           6.8671    0.2144    0.0000 C.ar    1  UNL1        0.1726
     29 C           6.0010   -0.2856    0.0000 C.ar    1  UNL1        0.2044
     30 C           6.8671    1.2144    0.0000 C.ar    1  UNL1        0.0271
     31 C           6.0010    1.7144    0.0000 C.ar    1  UNL1        0.1465
     32 C           5.1350    0.2144    0.0000 C.ar    1  UNL1        0.1768
     33 C           5.1350    1.2144    0.0000 C.ar    1  UNL1        0.1091
     34 C           4.2250    1.7212    0.0000 C.ar    1  UNL1        0.1967
     35 C           5.1191    3.2836    0.0000 C.ar    1  UNL1        0.1392
     36 C           4.2170    2.7628    0.0000 C.ar    1  UNL1        0.0288
     37 C           5.1350   -1.7856    0.0000 C.3     1  UNL1        0.0791
     38 C           5.1229    4.2836    0.0000 C.ar    1  UNL1        0.0176
     39 C           4.2588    4.7869    0.0000 C.ar    1  UNL1       -0.0476
     40 C           5.9909    4.7803    0.0000 C.ar    1  UNL1       -0.0476
     41 C           4.2627    5.7869    0.0000 C.ar    1  UNL1       -0.0195
     42 C           5.9947    5.7802    0.0000 C.ar    1  UNL1       -0.0195
     43 C           5.1306    6.2836    0.0000 C.ar    1  UNL1        0.1169
     44 H           6.3301   -2.4756    0.0000 H       1  UNL1        0.0647
     45 H           8.2700   -3.5956    0.0000 H       1  UNL1        0.0647
     46 H           9.1360   -2.4756    0.0000 H       1  UNL1        0.0648
     47 H           8.5991   -1.1656    0.0000 H       1  UNL1        0.0683
     48 H           5.1350   -6.4056    0.0000 H       1  UNL1        0.0671
     49 H           5.1350   -4.1656    0.0000 H       1  UNL1        0.0937
     50 H           3.7320   -6.5956    0.0000 H       1  UNL1        0.0648
     51 H           3.4030   -6.4056    0.0000 H       1  UNL1        0.0646
     52 H           7.1962   -0.9756    0.0000 H       1  UNL1        0.1084
     53 H           5.7890   -2.7030    0.0000 H       1  UNL1        0.0587
     54 H           5.3905   -3.3933    0.0000 H       1  UNL1        0.0587
     55 H           3.4030   -4.1656    0.0000 H       1  UNL1        0.0621
     56 H           2.8469   -3.7487    0.0000 H       1  UNL1        0.0255
     57 H           2.0000   -3.9756    0.0000 H       1  UNL1        0.0255
     58 H           2.2269   -4.8226    0.0000 H       1  UNL1        0.0255
     59 H           8.2700   -4.5956    0.0000 H       1  UNL1        0.2100
     60 H          10.0021   -2.9756    0.0000 H       1  UNL1        0.2100
     61 H           9.4651   -0.6656    0.0000 H       1  UNL1        0.2102
     62 H           6.5380   -5.9756    0.0000 H       1  UNL1        0.2101
     63 H           3.7320   -7.5956    0.0000 H       1  UNL1        0.2100
     64 H           2.0000   -5.9756    0.0000 H       1  UNL1        0.2100
     65 H           7.4040    1.5244    0.0000 H       1  UNL1        0.0692
     66 H           3.6788    3.0707    0.0000 H       1  UNL1        0.0693
     67 H           4.2690   -0.9056    0.0000 H       1  UNL1        0.2923
     68 H           4.8250   -1.2487    0.0000 H       1  UNL1        0.0660
     69 H           4.5981   -2.0956    0.0000 H       1  UNL1        0.0660
     70 H           5.4450   -2.3226    0.0000 H       1  UNL1        0.0660
     71 H           3.7207    4.4790    0.0000 H       1  UNL1        0.0626
     72 H           6.5266    4.4682    0.0000 H       1  UNL1        0.0626
     73 H           3.7269    6.0990    0.0000 H       1  UNL1        0.0654
     74 H           6.5328    6.0882    0.0000 H       1  UNL1        0.0654
     75 H           4.5987    7.5956    0.0000 H       1  UNL1        0.2921
@<TRIPOS>BOND
     1     1    16    1
     2     1    24    1
     3    21     2    1
     4     2    25    1
     5     3    21    1
     6     3    26    1
     7    17     4    1
     8     4    59    1
     9    18     5    1
    10     5    60    1
    11    24     6    1
    12     6    28    1
    13    19     7    1
    14     7    61    1
    15    20     8    1
    16     8    62    1
    17    22     9    1
    18     9    63    1
    19    23    10    1
    20    10    64    1
    21    11    29    1
    22    11    37    1
    23    12    31   ar
    24    12    35   ar
    25    13    32    1
    26    13    67    1
    27    14    34    2
    28    15    43    1
    29    15    75    1
    30    16    17    1
    31    16    25    1
    32    16    44    1
    33    17    18    1
    34    17    45    1
    35    18    19    1
    36    18    46    1
    37    19    24    1
    38    19    47    1
    39    20    21    1
    40    20    22    1
    41    20    48    1
    42    21    49    1
    43    22    23    1
    44    22    50    1
    45    23    26    1
    46    23    51    1
    47    24    52    1
    48    25    53    1
    49    25    54    1
    50    26    27    1
    51    26    55    1
    52    27    56    1
    53    27    57    1
    54    27    58    1
    55    28    29   ar
    56    28    30   ar
    57    29    32   ar
    58    30    31   ar
    59    30    65    1
    60    31    33   ar
    61    32    33   ar
    62    33    34   ar
    63    34    36   ar
    64    35    36   ar
    65    35    38    1
    66    36    66    1
    67    37    68    1
    68    37    69    1
    69    37    70    1
    70    38    39   ar
    71    38    40   ar
    72    39    41   ar
    73    39    71    1
    74    40    42   ar
    75    40    72    1
    76    41    43   ar
    77    41    73    1
    78    42    43   ar
    79    42    74    1
