@<TRIPOS>MOLECULE
IMPHY005692
 28 28 0 0 0
SMALL
GASTEIGER

@<TRIPOS>ATOM
      1 O           2.8660    1.5950    0.0000 O.3     1  UNL1       -0.4913
      2 O           6.3301    1.5950    0.0000 O.3     1  UNL1       -0.4913
      3 O           4.5981    2.5950    0.0000 O.3     1  UNL1       -0.5009
      4 C           4.5981   -0.4050    0.0000 C.ar    1  UNL1       -0.0365
      5 C           4.5981   -1.4050    0.0000 C.3     1  UNL1       -0.0095
      6 C           5.4641    0.0950    0.0000 C.ar    1  UNL1       -0.0126
      7 C           3.7320    0.0950    0.0000 C.ar    1  UNL1       -0.0126
      8 C           3.7320    1.0950    0.0000 C.ar    1  UNL1        0.1652
      9 C           5.4641    1.0950    0.0000 C.ar    1  UNL1        0.1652
     10 C           4.5981    1.5950    0.0000 C.ar    1  UNL1        0.2010
     11 C           3.7320   -1.9050    0.0000 C.2     1  UNL1       -0.0868
     12 C           2.0000    1.0950    0.0000 C.3     1  UNL1        0.0790
     13 C           7.1962    1.0950    0.0000 C.3     1  UNL1        0.0790
     14 C           3.7320   -2.9050    0.0000 C.2     1  UNL1       -0.1023
     15 H           4.8101   -1.9876    0.0000 H       1  UNL1        0.0355
     16 H           5.2087   -1.2973    0.0000 H       1  UNL1        0.0355
     17 H           6.0010   -0.2150    0.0000 H       1  UNL1        0.0658
     18 H           3.1951   -0.2150    0.0000 H       1  UNL1        0.0658
     19 H           3.1951   -1.5950    0.0000 H       1  UNL1        0.0570
     20 H           5.1350    2.9050    0.0000 H       1  UNL1        0.2924
     21 H           1.6900    1.6319    0.0000 H       1  UNL1        0.0660
     22 H           1.4631    0.7850    0.0000 H       1  UNL1        0.0660
     23 H           2.3100    0.5581    0.0000 H       1  UNL1        0.0660
     24 H           6.8862    0.5581    0.0000 H       1  UNL1        0.0660
     25 H           7.7331    0.7850    0.0000 H       1  UNL1        0.0660
     26 H           7.5062    1.6319    0.0000 H       1  UNL1        0.0660
     27 H           3.1951   -3.2150    0.0000 H       1  UNL1        0.0532
     28 H           4.2690   -3.2150    0.0000 H       1  UNL1        0.0532
@<TRIPOS>BOND
     1     1     8    1
     2     1    12    1
     3     2     9    1
     4     2    13    1
     5     3    10    1
     6     3    20    1
     7     4     5    1
     8     4     6   ar
     9     4     7   ar
    10     5    11    1
    11     5    15    1
    12     5    16    1
    13     6     9   ar
    14     6    17    1
    15     7     8   ar
    16     7    18    1
    17     8    10   ar
    18     9    10   ar
    19    11    14    2
    20    11    19    1
    21    12    21    1
    22    12    22    1
    23    12    23    1
    24    13    24    1
    25    13    25    1
    26    13    26    1
    27    14    27    1
    28    14    28    1
