@<TRIPOS>MOLECULE
IMPHY008619
 83 88 0 0 0
SMALL
GASTEIGER

@<TRIPOS>ATOM
      1 O           3.4844   -1.9914    0.0000 O.3     1  UNL1       -0.3877
      2 O           5.4339    0.0128    0.0000 O.3     1  UNL1       -0.4636
      3 O           4.3863    4.7499    0.0000 O.3     1  UNL1       -0.3886
      4 O           2.5357    3.6815    0.0000 O.3     1  UNL1       -0.3892
      5 O           5.5183   -2.5613    0.0000 O.2     1  UNL1       -0.2502
      6 C           5.3061   -0.1079    0.0000 C.3     1  UNL1       -0.0207
      7 C           5.2901   -1.1494    0.0000 C.3     1  UNL1        0.0027
      8 C           4.4081    0.4198    0.0000 C.3     1  UNL1       -0.0292
      9 C           4.4241   -1.6494    0.0000 C.3     1  UNL1        0.0758
     10 C           4.3997    1.5048    0.0000 C.3     1  UNL1       -0.0228
     11 C           4.4241   -2.6494    0.0000 C.3     1  UNL1        0.0046
     12 C           5.3394    2.0473    0.0000 C.3     1  UNL1       -0.0243
     13 C           5.2901   -3.1494    0.0000 C.3     1  UNL1        0.0732
     14 C           6.2581    0.4127    0.0000 C.3     1  UNL1       -0.0465
     15 C           3.5060   -0.1010    0.0000 C.3     1  UNL1       -0.0466
     16 C           3.5141   -1.1426    0.0000 C.3     1  UNL1       -0.0229
     17 C           6.1561   -1.6494    0.0000 C.3     1  UNL1       -0.0435
     18 C           6.2748    1.4976    0.0000 C.3     1  UNL1       -0.0485
     19 C           5.3568    3.1773    0.0000 C.3     1  UNL1        0.0337
     20 C           6.1561   -2.6494    0.0000 C.3     1  UNL1       -0.0363
     21 C           3.4124    2.0547    0.0000 C.3     1  UNL1       -0.0184
     22 C           6.2896   -0.2892    0.0000 C.3     1  UNL1       -0.0587
     23 C           6.2749   -0.9758    0.0000 C.3     1  UNL1       -0.0564
     24 C           3.5141   -3.1563    0.0000 C.3     1  UNL1       -0.0414
     25 C           5.3061   -4.1910    0.0000 C.3     1  UNL1       -0.0364
     26 C           4.3824    3.7499    0.0000 C.3     1  UNL1        0.0898
     27 C           3.4149    1.3312    0.0000 C.3     1  UNL1       -0.0589
     28 C           3.4037    3.1848    0.0000 C.3     1  UNL1        0.0822
     29 C           3.5060   -4.1979    0.0000 C.3     1  UNL1       -0.0345
     30 C           4.4081   -4.7187    0.0000 C.3     1  UNL1       -0.0468
     31 C           5.4230    1.5957    0.0000 C.3     1  UNL1        0.1005
     32 C           5.3896   -1.5696    0.0000 C.2     1  UNL1        0.3137
     33 C           5.3722    4.1772    0.0000 C.3     1  UNL1       -0.0537
     34 C           3.0027   -5.0620    0.0000 C.3     1  UNL1       -0.0598
     35 C           2.5060   -4.1940    0.0000 C.3     1  UNL1       -0.0598
     36 H           3.5722    0.5739    0.0000 H       1  UNL1        0.0312
     37 H           3.8041   -2.6494    0.0000 H       1  UNL1        0.0339
     38 H           6.0804    2.4637    0.0000 H       1  UNL1        0.0313
     39 H           6.4581   -0.1742    0.0000 H       1  UNL1        0.0271
     40 H           6.8705    0.5094    0.0000 H       1  UNL1        0.0271
     41 H           3.2925    0.4811    0.0000 H       1  UNL1        0.0269
     42 H           2.8960   -0.2118    0.0000 H       1  UNL1        0.0269
     43 H           2.9024   -1.0412    0.0000 H       1  UNL1        0.0293
     44 H           3.3095   -1.7279    0.0000 H       1  UNL1        0.0293
     45 H           6.7667   -1.7571    0.0000 H       1  UNL1        0.0272
     46 H           6.3682   -1.0668    0.0000 H       1  UNL1        0.0272
     47 H           6.8840    1.3821    0.0000 H       1  UNL1        0.0268
     48 H           6.4928    2.0780    0.0000 H       1  UNL1        0.0268
     49 H           6.3682   -3.2320    0.0000 H       1  UNL1        0.0276
     50 H           6.7667   -2.5418    0.0000 H       1  UNL1        0.0276
     51 H           2.8007    2.1561    0.0000 H       1  UNL1        0.0296
     52 H           3.2078    1.4694    0.0000 H       1  UNL1        0.0296
     53 H           6.1772   -0.8989    0.0000 H       1  UNL1        0.0235
     54 H           6.8993   -0.4015    0.0000 H       1  UNL1        0.0235
     55 H           6.4020    0.3206    0.0000 H       1  UNL1        0.0235
     56 H           6.3826   -1.5864    0.0000 H       1  UNL1        0.0236
     57 H           6.8855   -0.8681    0.0000 H       1  UNL1        0.0236
     58 H           6.1672   -0.3652    0.0000 H       1  UNL1        0.0236
     59 H           3.3095   -2.5710    0.0000 H       1  UNL1        0.0274
     60 H           2.9024   -3.2577    0.0000 H       1  UNL1        0.0274
     61 H           5.5242   -4.7714    0.0000 H       1  UNL1        0.0276
     62 H           5.9153   -4.0754    0.0000 H       1  UNL1        0.0276
     63 H           4.9212    4.0568    0.0000 H       1  UNL1        0.0626
     64 H           3.3073    1.9418    0.0000 H       1  UNL1        0.0235
     65 H           2.8043    1.2235    0.0000 H       1  UNL1        0.0235
     66 H           3.5226    0.7206    0.0000 H       1  UNL1        0.0235
     67 H           3.4025    3.8048    0.0000 H       1  UNL1        0.0619
     68 H           4.0108   -5.1947    0.0000 H       1  UNL1        0.0271
     69 H           4.8091   -5.1916    0.0000 H       1  UNL1        0.0271
     70 H           5.9656    1.2957    0.0000 H       1  UNL1        0.0704
     71 H           4.8032    1.5806    0.0000 H       1  UNL1        0.0704
     72 H           3.0094   -1.5929    0.0000 H       1  UNL1        0.2102
     73 H           5.9921    4.1676    0.0000 H       1  UNL1        0.0237
     74 H           5.3818    4.7971    0.0000 H       1  UNL1        0.0237
     75 H           4.7523    4.1868    0.0000 H       1  UNL1        0.0237
     76 H           2.5084   -3.5740    0.0000 H       1  UNL1        0.0235
     77 H           1.8860   -4.1916    0.0000 H       1  UNL1        0.0235
     78 H           2.5036   -4.8140    0.0000 H       1  UNL1        0.0235
     79 H           2.4670   -4.7499    0.0000 H       1  UNL1        0.0235
     80 H           2.6906   -5.5977    0.0000 H       1  UNL1        0.0235
     81 H           3.5384   -5.3741    0.0000 H       1  UNL1        0.0235
     82 H           3.8506    5.0620    0.0000 H       1  UNL1        0.2099
     83 H           2.0000    3.3694    0.0000 H       1  UNL1        0.2099
@<TRIPOS>BOND
     1     1     9    1
     2     1    72    1
     3     2    31    1
     4     2    32    1
     5    26     3    1
     6     3    82    1
     7    28     4    1
     8     4    83    1
     9     5    32    2
    10     6     7    1
    11     6     8    1
    12     6    14    1
    13     6    22    1
    14     7     9    1
    15     7    17    1
    16     7    23    1
    17     8    10    1
    18     8    15    1
    19     8    36    1
    20     9    11    1
    21     9    16    1
    22    10    12    1
    23    10    21    1
    24    10    27    1
    25    11    13    1
    26    11    24    1
    27    11    37    1
    28    12    18    1
    29    12    19    1
    30    12    38    1
    31    13    20    1
    32    13    25    1
    33    13    32    1
    34    14    18    1
    35    14    39    1
    36    14    40    1
    37    15    16    1
    38    15    41    1
    39    15    42    1
    40    16    43    1
    41    16    44    1
    42    17    20    1
    43    17    45    1
    44    17    46    1
    45    18    47    1
    46    18    48    1
    47    19    26    1
    48    19    31    1
    49    19    33    1
    50    20    49    1
    51    20    50    1
    52    21    28    1
    53    21    51    1
    54    21    52    1
    55    22    53    1
    56    22    54    1
    57    22    55    1
    58    23    56    1
    59    23    57    1
    60    23    58    1
    61    24    29    1
    62    24    59    1
    63    24    60    1
    64    25    30    1
    65    25    61    1
    66    25    62    1
    67    26    28    1
    68    26    63    1
    69    27    64    1
    70    27    65    1
    71    27    66    1
    72    28    67    1
    73    29    30    1
    74    29    34    1
    75    29    35    1
    76    30    68    1
    77    30    69    1
    78    31    70    1
    79    31    71    1
    80    33    73    1
    81    33    74    1
    82    33    75    1
    83    34    79    1
    84    34    80    1
    85    34    81    1
    86    35    76    1
    87    35    77    1
    88    35    78    1
