@<TRIPOS>MOLECULE
IMPHY003409
 43 47 0 0 0
SMALL
GASTEIGER

@<TRIPOS>ATOM
      1 O           4.6527   -3.7408    0.0000 O.3     1  UNL1       -0.4523
      2 O           3.2074   -4.5902    0.0000 O.3     1  UNL1       -0.4526
      3 O           3.8105    4.1863    0.0000 O.3     1  UNL1       -0.4914
      4 O           2.0072    3.1265    0.0000 O.3     1  UNL1       -0.5033
      5 N           4.7297   -0.5104    0.0000 N.3     1  UNL1       -0.2905
      6 C           3.8636   -0.0104    0.0000 C.3     1  UNL1        0.0403
      7 C           2.9976   -0.5104    0.0000 C.3     1  UNL1       -0.0074
      8 C           5.6397   -0.0036    0.0000 C.3     1  UNL1        0.0038
      9 C           4.7297   -1.5104    0.0000 C.3     1  UNL1        0.0285
     10 C           3.8476    1.0311    0.0000 C.ar    1  UNL1       -0.0231
     11 C           2.9976   -1.5104    0.0000 C.ar    1  UNL1       -0.0375
     12 C           5.6477    1.0380    0.0000 C.3     1  UNL1       -0.0144
     13 C           3.8636   -2.0104    0.0000 C.ar    1  UNL1        0.0153
     14 C           4.7456    1.5588    0.0000 C.ar    1  UNL1       -0.0378
     15 C           3.8797   -3.0519    0.0000 C.ar    1  UNL1        0.1709
     16 C           2.8956    1.5517    0.0000 C.ar    1  UNL1       -0.0116
     17 C           2.0876   -2.0173    0.0000 C.ar    1  UNL1       -0.0545
     18 C           4.7540    2.6438    0.0000 C.ar    1  UNL1       -0.0128
     19 C           2.9816   -3.5797    0.0000 C.ar    1  UNL1        0.1666
     20 C           2.0796   -3.0589    0.0000 C.ar    1  UNL1       -0.0159
     21 C           2.8789    2.6366    0.0000 C.ar    1  UNL1        0.1588
     22 C           3.8143    3.1863    0.0000 C.ar    1  UNL1        0.1615
     23 C           4.2380   -4.6896    0.0000 C.3     1  UNL1        0.2332
     24 C           4.6746    4.6896    0.0000 C.3     1  UNL1        0.0790
     25 H           3.1243    0.4089    0.0000 H       1  UNL1        0.0516
     26 H           2.7856    0.0722    0.0000 H       1  UNL1        0.0332
     27 H           2.3870   -0.6181    0.0000 H       1  UNL1        0.0332
     28 H           4.9417   -2.0930    0.0000 H       1  UNL1        0.0477
     29 H           5.3402   -1.4028    0.0000 H       1  UNL1        0.0477
     30 H           5.8442   -0.5889    0.0000 H       1  UNL1        0.0430
     31 H           6.2513    0.0978    0.0000 H       1  UNL1        0.0430
     32 H           6.2577    0.9272    0.0000 H       1  UNL1        0.0326
     33 H           5.8612    1.6201    0.0000 H       1  UNL1        0.0326
     34 H           2.3648    1.2314    0.0000 H       1  UNL1        0.0658
     35 H           1.5543   -1.7011    0.0000 H       1  UNL1        0.0622
     36 H           5.2921    2.9517    0.0000 H       1  UNL1        0.0658
     37 H           1.5414   -3.3668    0.0000 H       1  UNL1        0.0655
     38 H           4.1140   -5.2971    0.0000 H       1  UNL1        0.1166
     39 H           4.8291   -4.8768    0.0000 H       1  UNL1        0.1166
     40 H           2.0000    3.7465    0.0000 H       1  UNL1        0.2923
     41 H           4.9866    4.1539    0.0000 H       1  UNL1        0.0660
     42 H           5.2103    5.0017    0.0000 H       1  UNL1        0.0660
     43 H           4.3625    5.2254    0.0000 H       1  UNL1        0.0660
@<TRIPOS>BOND
     1     1    15    1
     2     1    23    1
     3     2    19    1
     4     2    23    1
     5     3    22    1
     6     3    24    1
     7     4    21    1
     8     4    40    1
     9     5     6    1
    10     5     8    1
    11     5     9    1
    12     6     7    1
    13     6    10    1
    14     6    25    1
    15     7    11    1
    16     7    26    1
    17     7    27    1
    18     8    12    1
    19     8    30    1
    20     8    31    1
    21     9    13    1
    22     9    28    1
    23     9    29    1
    24    10    14   ar
    25    10    16   ar
    26    11    13   ar
    27    11    17   ar
    28    12    14    1
    29    12    32    1
    30    12    33    1
    31    13    15   ar
    32    14    18   ar
    33    15    19   ar
    34    16    21   ar
    35    16    34    1
    36    17    20   ar
    37    17    35    1
    38    18    22   ar
    39    18    36    1
    40    19    20   ar
    41    20    37    1
    42    21    22   ar
    43    23    38    1
    44    23    39    1
    45    24    41    1
    46    24    42    1
    47    24    43    1
