@<TRIPOS>MOLECULE
IMPHY017238
 29 29 0 0 0
SMALL
GASTEIGER

@<TRIPOS>ATOM
      1 O           6.0010   -1.2500    0.0000 O.3     1  UNL1       -0.4948
      2 O           2.5369    0.7500    0.0000 O.3     1  UNL1       -0.5065
      3 C           4.2690    1.7500    0.0000 C.3     1  UNL1       -0.0180
      4 C           4.2690    0.7500    0.0000 C.ar    1  UNL1        0.0001
      5 C           3.4030    0.2500    0.0000 C.ar    1  UNL1        0.1207
      6 C           5.1350    0.2500    0.0000 C.ar    1  UNL1       -0.0128
      7 C           5.1350    2.2500    0.0000 C.3     1  UNL1       -0.0585
      8 C           3.4030    2.2500    0.0000 C.3     1  UNL1       -0.0585
      9 C           4.2690   -1.2500    0.0000 C.ar    1  UNL1       -0.0053
     10 C           5.1350   -0.7500    0.0000 C.ar    1  UNL1        0.1235
     11 C           3.4030   -0.7500    0.0000 C.ar    1  UNL1       -0.0135
     12 C           4.2690   -2.2500    0.0000 C.3     1  UNL1       -0.0361
     13 C           6.8671   -0.7500    0.0000 C.3     1  UNL1        0.0788
     14 H           4.2690    2.3700    0.0000 H       1  UNL1        0.0345
     15 H           5.6720    0.5600    0.0000 H       1  UNL1        0.0658
     16 H           5.4450    1.7131    0.0000 H       1  UNL1        0.0235
     17 H           5.6720    2.5600    0.0000 H       1  UNL1        0.0235
     18 H           4.8250    2.7869    0.0000 H       1  UNL1        0.0235
     19 H           3.7130    2.7869    0.0000 H       1  UNL1        0.0235
     20 H           2.8660    2.5600    0.0000 H       1  UNL1        0.0235
     21 H           3.0930    1.7131    0.0000 H       1  UNL1        0.0235
     22 H           2.8660   -1.0600    0.0000 H       1  UNL1        0.0658
     23 H           3.6490   -2.2500    0.0000 H       1  UNL1        0.0279
     24 H           4.2690   -2.8700    0.0000 H       1  UNL1        0.0279
     25 H           4.8890   -2.2500    0.0000 H       1  UNL1        0.0279
     26 H           2.0000    0.4400    0.0000 H       1  UNL1        0.2921
     27 H           7.1771   -1.2869    0.0000 H       1  UNL1        0.0660
     28 H           7.4040   -0.4400    0.0000 H       1  UNL1        0.0660
     29 H           6.5571   -0.2131    0.0000 H       1  UNL1        0.0660
@<TRIPOS>BOND
     1     1    10    1
     2     1    13    1
     3     2     5    1
     4     2    26    1
     5     3     4    1
     6     3     7    1
     7     3     8    1
     8     3    14    1
     9     4     5   ar
    10     4     6   ar
    11     5    11   ar
    12     6    10   ar
    13     6    15    1
    14     7    16    1
    15     7    17    1
    16     7    18    1
    17     8    19    1
    18     8    20    1
    19     8    21    1
    20     9    10   ar
    21     9    11   ar
    22     9    12    1
    23    11    22    1
    24    12    23    1
    25    12    24    1
    26    12    25    1
    27    13    27    1
    28    13    28    1
    29    13    29    1
