@<TRIPOS>MOLECULE
IMPHY003328
 39 42 0 0 0
SMALL
GASTEIGER

@<TRIPOS>ATOM
      1 O           3.7782    1.4936    0.0000 O.3     1  UNL1       -0.4908
      2 O           5.5442    2.5314    0.0000 O.3     1  UNL1       -0.4914
      3 O           8.1630   -0.0872    0.0000 O.2     1  UNL1       -0.2817
      4 O           8.1118   -2.0676    0.0000 O.2     1  UNL1       -0.2661
      5 N           6.3903   -2.0348    0.0000 N.am    1  UNL1       -0.2672
      6 C           5.5321   -0.5378    0.0000 C.ar    1  UNL1        0.0188
      7 C           4.6660   -0.0378    0.0000 C.ar    1  UNL1        0.0376
      8 C           5.5321   -1.5378    0.0000 C.ar    1  UNL1        0.0454
      9 C           3.8000   -0.5378    0.0000 C.ar    1  UNL1       -0.0064
     10 C           6.4421   -0.0310    0.0000 C.ar    1  UNL1        0.0401
     11 C           3.8000   -1.5378    0.0000 C.ar    1  UNL1       -0.0154
     12 C           4.6660   -2.0378    0.0000 C.ar    1  UNL1       -0.0319
     13 C           4.6500    1.0037    0.0000 C.ar    1  UNL1        0.1698
     14 C           6.4501    1.0106    0.0000 C.ar    1  UNL1       -0.0047
     15 C           7.2814   -0.5592    0.0000 C.2     1  UNL1        0.2485
     16 C           5.5480    1.5314    0.0000 C.ar    1  UNL1        0.1628
     17 C           7.2558   -1.5506    0.0000 C.2     1  UNL1        0.2910
     18 C           2.9061   -0.0032    0.0000 C.ar    1  UNL1       -0.0533
     19 C           2.9061   -2.0725    0.0000 C.ar    1  UNL1       -0.0540
     20 C           6.3829   -3.0348    0.0000 C.3     1  UNL1        0.0087
     21 C           2.0000   -0.5170    0.0000 C.ar    1  UNL1       -0.0611
     22 C           2.0000   -1.5587    0.0000 C.ar    1  UNL1       -0.0612
     23 C           3.7667    2.4936    0.0000 C.3     1  UNL1        0.0790
     24 C           6.4082    3.0348    0.0000 C.3     1  UNL1        0.0790
     25 H           4.6660   -2.6578    0.0000 H       1  UNL1        0.0642
     26 H           6.9882    1.3185    0.0000 H       1  UNL1        0.0663
     27 H           2.9132    0.6168    0.0000 H       1  UNL1        0.0624
     28 H           2.9132   -2.6925    0.0000 H       1  UNL1        0.0624
     29 H           5.7629   -3.0302    0.0000 H       1  UNL1        0.0433
     30 H           6.3783   -3.6547    0.0000 H       1  UNL1        0.0433
     31 H           7.0029   -3.0393    0.0000 H       1  UNL1        0.0433
     32 H           1.4643   -0.2050    0.0000 H       1  UNL1        0.0618
     33 H           1.4643   -1.8707    0.0000 H       1  UNL1        0.0618
     34 H           4.3866    2.5007    0.0000 H       1  UNL1        0.0660
     35 H           3.7595    3.1135    0.0000 H       1  UNL1        0.0660
     36 H           3.1467    2.4864    0.0000 H       1  UNL1        0.0660
     37 H           6.7203    2.4990    0.0000 H       1  UNL1        0.0660
     38 H           6.9440    3.3468    0.0000 H       1  UNL1        0.0660
     39 H           6.0962    3.5705    0.0000 H       1  UNL1        0.0660
@<TRIPOS>BOND
     1     1    13    1
     2     1    23    1
     3     2    16    1
     4     2    24    1
     5     3    15    2
     6     4    17    2
     7     5     8    1
     8     5    17   am
     9     5    20    1
    10     6     7   ar
    11     6     8   ar
    12     6    10   ar
    13     7     9   ar
    14     7    13   ar
    15     8    12   ar
    16     9    11   ar
    17     9    18   ar
    18    10    14   ar
    19    10    15    1
    20    11    12   ar
    21    11    19   ar
    22    12    25    1
    23    13    16   ar
    24    14    16   ar
    25    14    26    1
    26    15    17    1
    27    18    21   ar
    28    18    27    1
    29    19    22   ar
    30    19    28    1
    31    20    29    1
    32    20    30    1
    33    20    31    1
    34    21    22   ar
    35    21    32    1
    36    22    33    1
    37    23    34    1
    38    23    35    1
    39    23    36    1
    40    24    37    1
    41    24    38    1
    42    24    39    1
