@<TRIPOS>MOLECULE
IMPHY006147
 63 65 0 0 0
SMALL
GASTEIGER

@<TRIPOS>ATOM
      1 O           3.4027   -2.0300    0.0000 O.3     1  UNL1       -0.3596
      2 O           6.2102   -2.5014    0.0000 O.3     1  UNL1       -0.4546
      3 O           4.4922   -0.2635    0.0000 O.3     1  UNL1       -0.3852
      4 O           2.5369    0.4704    0.0000 O.3     1  UNL1       -0.3891
      5 O           7.7331    0.4704    0.0000 O.3     1  UNL1       -0.4567
      6 O           6.0010    1.4704    0.0000 O.3     1  UNL1       -0.4575
      7 O           7.6990   -3.4704    0.0000 O.2     1  UNL1       -0.2453
      8 O           6.8671    1.9704    0.0000 O.2     1  UNL1       -0.2505
      9 O           4.2690    1.4704    0.0000 O.2     1  UNL1       -0.2512
     10 C           4.2690   -1.5296    0.0000 C.3     1  UNL1        0.1248
     11 C           3.4030   -1.0296    0.0000 C.3     1  UNL1        0.1165
     12 C           5.1350   -1.0296    0.0000 C.3     1  UNL1        0.1238
     13 C           3.4030   -0.0296    0.0000 C.3     1  UNL1        0.0845
     14 C           6.0010   -1.5296    0.0000 C.3     1  UNL1        0.1423
     15 C           6.8671   -1.0296    0.0000 C.3     1  UNL1        0.0705
     16 C           4.2690    0.4704    0.0000 C.3     1  UNL1       -0.0183
     17 C           5.1350   -2.0296    0.0000 C.3     1  UNL1       -0.0307
     18 C           6.8671   -0.0296    0.0000 C.3     1  UNL1        0.1504
     19 C           5.1350   -0.0296    0.0000 C.3     1  UNL1       -0.0007
     20 C           6.0010    0.4704    0.0000 C.3     1  UNL1        0.1430
     21 C           7.6041   -1.6966    0.0000 C.2     1  UNL1        0.0398
     22 C           6.0011   -0.5295    0.0000 C.3     1  UNL1       -0.0588
     23 C           7.1990   -2.6044    0.0000 C.2     1  UNL1        0.3355
     24 C           8.5826   -1.4904    0.0000 C.2     1  UNL1       -0.0882
     25 C           7.7331    1.4704    0.0000 C.2     1  UNL1        0.3103
     26 C           5.1350    1.9704    0.0000 C.2     1  UNL1        0.3043
     27 C           8.5991    1.9704    0.0000 C.3     1  UNL1        0.0534
     28 C           8.5991    2.9704    0.0000 C.3     1  UNL1       -0.0432
     29 C           5.1350    2.9704    0.0000 C.3     1  UNL1        0.0332
     30 C           9.4651    1.4704    0.0000 C.3     1  UNL1       -0.0523
     31 C           9.4651    3.4704    0.0000 C.3     1  UNL1       -0.0645
     32 H           2.5530   -1.0294    0.0000 H       1  UNL1        0.0652
     33 H           5.5335   -0.5546    0.0000 H       1  UNL1        0.0660
     34 H           3.4030    0.5904    0.0000 H       1  UNL1        0.0620
     35 H           5.3140   -2.0301    0.0000 H       1  UNL1        0.0768
     36 H           7.6440   -0.6848    0.0000 H       1  UNL1        0.0425
     37 H           4.6675    0.9454    0.0000 H       1  UNL1        0.0295
     38 H           3.8705    0.9454    0.0000 H       1  UNL1        0.0295
     39 H           4.8250   -2.5665    0.0000 H       1  UNL1        0.0259
     40 H           5.6720   -2.3396    0.0000 H       1  UNL1        0.0259
     41 H           5.4450   -1.4926    0.0000 H       1  UNL1        0.0259
     42 H           7.4040   -0.3396    0.0000 H       1  UNL1        0.0779
     43 H           4.8250   -0.5665    0.0000 H       1  UNL1        0.0336
     44 H           6.5380    0.7804    0.0000 H       1  UNL1        0.0774
     45 H           4.0172   -0.6620    0.0000 H       1  UNL1        0.2101
     46 H           5.6911   -1.0664    0.0000 H       1  UNL1        0.0234
     47 H           6.5380   -0.8394    0.0000 H       1  UNL1        0.0234
     48 H           6.3110    0.0075    0.0000 H       1  UNL1        0.0234
     49 H           2.0000    0.1604    0.0000 H       1  UNL1        0.2099
     50 H           8.9966   -1.9519    0.0000 H       1  UNL1        0.0540
     51 H           8.7752   -0.9011    0.0000 H       1  UNL1        0.0540
     52 H           8.5991    1.3504    0.0000 H       1  UNL1        0.0410
     53 H           8.3871    3.5531    0.0000 H       1  UNL1        0.0270
     54 H           7.9885    2.8628    0.0000 H       1  UNL1        0.0270
     55 H           5.7550    2.9704    0.0000 H       1  UNL1        0.0342
     56 H           5.1350    3.5904    0.0000 H       1  UNL1        0.0342
     57 H           4.5150    2.9704    0.0000 H       1  UNL1        0.0342
     58 H           9.1551    0.9335    0.0000 H       1  UNL1        0.0238
     59 H          10.0021    1.1604    0.0000 H       1  UNL1        0.0238
     60 H           9.7751    2.0074    0.0000 H       1  UNL1        0.0238
     61 H           9.7751    2.9335    0.0000 H       1  UNL1        0.0230
     62 H          10.0021    3.7804    0.0000 H       1  UNL1        0.0230
     63 H           9.1551    4.0074    0.0000 H       1  UNL1        0.0230
@<TRIPOS>BOND
     1     1    10    1
     2     1    11    1
     3     2    14    1
     4     2    23    1
     5    12     3    1
     6     3    45    1
     7    13     4    1
     8     4    49    1
     9    18     5    1
    10     5    25    1
    11    20     6    1
    12     6    26    1
    13     7    23    2
    14     8    25    2
    15     9    26    2
    16    10    11    1
    17    10    12    1
    18    10    17    1
    19    11    13    1
    20    11    32    1
    21    12    14    1
    22    12    33    1
    23    13    16    1
    24    13    34    1
    25    14    15    1
    26    14    35    1
    27    15    18    1
    28    15    21    1
    29    15    36    1
    30    16    19    1
    31    16    37    1
    32    16    38    1
    33    17    39    1
    34    17    40    1
    35    17    41    1
    36    18    20    1
    37    18    42    1
    38    19    20    1
    39    19    22    1
    40    19    43    1
    41    20    44    1
    42    21    23    1
    43    21    24    2
    44    22    46    1
    45    22    47    1
    46    22    48    1
    47    24    50    1
    48    24    51    1
    49    25    27    1
    50    26    29    1
    51    27    28    1
    52    27    30    1
    53    27    52    1
    54    28    31    1
    55    28    53    1
    56    28    54    1
    57    29    55    1
    58    29    56    1
    59    29    57    1
    60    30    58    1
    61    30    59    1
    62    30    60    1
    63    31    61    1
    64    31    62    1
    65    31    63    1
