@<TRIPOS>MOLECULE
IMPHY013706
 158 166 0 0 0
SMALL
GASTEIGER

@<TRIPOS>ATOM
      1 O           4.6888    3.9136    0.0000 O.3     1  UNL1       -0.3450
      2 O           2.8574    3.2054    0.0000 O.3     1  UNL1       -0.3642
      3 O          11.1168   -1.4409    0.0000 O.3     1  UNL1       -0.3451
      4 O          10.2508   -2.9409    0.0000 O.3     1  UNL1       -0.3405
      5 O           3.3220    7.7448    0.0000 O.3     1  UNL1       -0.3484
      6 O          12.8489   -2.4409    0.0000 O.3     1  UNL1       -0.3841
      7 O          12.8489   -4.4409    0.0000 O.3     1  UNL1       -0.3864
      8 O          11.1168   -5.4409    0.0000 O.3     1  UNL1       -0.3401
      9 O           3.3168    9.4769    0.0000 O.3     1  UNL1       -0.3405
     10 O           8.5188   -3.9409    0.0000 O.3     1  UNL1       -0.3924
     11 O           5.3220    7.7508    0.0000 O.3     1  UNL1       -0.3841
     12 O           9.3848   -5.4409    0.0000 O.3     1  UNL1       -0.3405
     13 O           6.3168    9.4858    0.0000 O.3     1  UNL1       -0.3864
     14 O           5.3116   11.2149    0.0000 O.3     1  UNL1       -0.3865
     15 O          11.1168   -7.4409    0.0000 O.3     1  UNL1       -0.3378
     16 O           2.3116   11.2059    0.0000 O.3     1  UNL1       -0.3924
     17 O           9.3848   -8.4409    0.0000 O.3     1  UNL1       -0.3864
     18 O           7.6527   -7.4409    0.0000 O.3     1  UNL1       -0.3865
     19 O          10.2508   -8.9409    0.0000 O.3     1  UNL1       -0.3431
     20 O           7.6527   -4.4409    0.0000 O.3     1  UNL1       -0.3924
     21 O          12.8489   -8.4409    0.0000 O.3     1  UNL1       -0.3841
     22 O          12.8489  -10.4409    0.0000 O.3     1  UNL1       -0.3864
     23 O          11.1168  -11.4409    0.0000 O.3     1  UNL1       -0.3866
     24 C           5.7648    1.6829    0.0000 C.3     1  UNL1       -0.0233
     25 C           6.6289    2.1862    0.0000 C.3     1  UNL1       -0.0295
     26 C           5.0252    2.3471    0.0000 C.3     1  UNL1       -0.0015
     27 C           7.4968    1.6896    0.0000 C.3     1  UNL1       -0.0306
     28 C           5.4268    3.2565    0.0000 C.3     1  UNL1        0.0660
     29 C           7.5007    0.6896    0.0000 C.3     1  UNL1       -0.0285
     30 C           6.4159    3.1572    0.0000 C.3     1  UNL1       -0.0226
     31 C           5.7687    0.6829    0.0000 C.3     1  UNL1       -0.0467
     32 C           4.0424    2.4500    0.0000 C.3     1  UNL1        0.0158
     33 C           6.6366    0.1862    0.0000 C.3     1  UNL1       -0.0486
     34 C           8.3967    0.1584    0.0000 C.3     1  UNL1       -0.0078
     35 C           3.8349    3.4162    0.0000 C.3     1  UNL1        0.1704
     36 C           4.9007    1.1796    0.0000 C.3     1  UNL1       -0.0590
     37 C           8.3887    2.2277    0.0000 C.3     1  UNL1       -0.0311
     38 C           9.3008    0.6757    0.0000 C.2     1  UNL1       -0.0648
     39 C           8.3758   -0.9264    0.0000 C.3     1  UNL1       -0.0413
     40 C           9.2968    1.7173    0.0000 C.2     1  UNL1       -0.0839
     41 C           3.3742    1.7060    0.0000 C.3     1  UNL1       -0.0572
     42 C           7.5288   -0.3383    0.0000 C.3     1  UNL1       -0.0556
     43 C           3.3323    4.2807    0.0000 C.3     1  UNL1        0.0018
     44 C          10.2466    0.1441    0.0000 C.3     1  UNL1       -0.0047
     45 C           9.3091   -1.4798    0.0000 C.3     1  UNL1       -0.0254
     46 C          10.2508   -0.9409    0.0000 C.3     1  UNL1        0.0655
     47 C           3.8297    5.1482    0.0000 C.3     1  UNL1       -0.0435
     48 C           3.3271    6.0128    0.0000 C.3     1  UNL1       -0.0201
     49 C          11.1168   -2.4409    0.0000 C.3     1  UNL1        0.1882
     50 C           3.8245    6.8803    0.0000 C.3     1  UNL1        0.0533
     51 C           2.3271    6.0098    0.0000 C.3     1  UNL1       -0.0603
     52 C          11.9829   -2.9409    0.0000 C.3     1  UNL1        0.1341
     53 C          11.9829   -3.9409    0.0000 C.3     1  UNL1        0.1144
     54 C          10.2508   -3.9409    0.0000 C.3     1  UNL1        0.1134
     55 C          11.1168   -4.4409    0.0000 C.3     1  UNL1        0.1184
     56 C           3.8194    8.6123    0.0000 C.3     1  UNL1        0.1879
     57 C           9.3848   -4.4409    0.0000 C.3     1  UNL1        0.0730
     58 C           4.8194    8.6153    0.0000 C.3     1  UNL1        0.1341
     59 C          10.2508   -5.9409    0.0000 C.3     1  UNL1        0.1888
     60 C           5.3168    9.4828    0.0000 C.3     1  UNL1        0.1141
     61 C           3.8142   10.3444    0.0000 C.3     1  UNL1        0.1130
     62 C           4.8142   10.3474    0.0000 C.3     1  UNL1        0.1119
     63 C          10.2508   -6.9409    0.0000 C.3     1  UNL1        0.1406
     64 C           3.3116   11.2089    0.0000 C.3     1  UNL1        0.0730
     65 C           9.3848   -7.4409    0.0000 C.3     1  UNL1        0.1144
     66 C           8.5188   -5.9409    0.0000 C.3     1  UNL1        0.1130
     67 C           8.5188   -6.9409    0.0000 C.3     1  UNL1        0.1119
     68 C           7.6527   -5.4409    0.0000 C.3     1  UNL1        0.0730
     69 C          11.1168   -8.4409    0.0000 C.3     1  UNL1        0.1884
     70 C          11.9829   -8.9409    0.0000 C.3     1  UNL1        0.1341
     71 C          11.9829   -9.9409    0.0000 C.3     1  UNL1        0.1140
     72 C          10.2508   -9.9409    0.0000 C.3     1  UNL1        0.0873
     73 C          11.1168  -10.4409    0.0000 C.3     1  UNL1        0.1095
     74 C           9.3848  -10.4409    0.0000 C.3     1  UNL1       -0.0361
     75 H           7.1286    2.5532    0.0000 H       1  UNL1        0.0310
     76 H           4.7735    1.7805    0.0000 H       1  UNL1        0.0335
     77 H           7.4897    2.3095    0.0000 H       1  UNL1        0.0310
     78 H           5.6761    3.8242    0.0000 H       1  UNL1        0.0600
     79 H           8.0388    0.9975    0.0000 H       1  UNL1        0.0312
     80 H           7.0322    3.2257    0.0000 H       1  UNL1        0.0293
     81 H           6.4127    3.7772    0.0000 H       1  UNL1        0.0293
     82 H           5.1577    0.7882    0.0000 H       1  UNL1        0.0271
     83 H           5.5589    0.0995    0.0000 H       1  UNL1        0.0271
     84 H           3.4433    2.6095    0.0000 H       1  UNL1        0.0354
     85 H           6.2399   -0.2902    0.0000 H       1  UNL1        0.0268
     86 H           7.0370   -0.2872    0.0000 H       1  UNL1        0.0268
     87 H           4.5886    1.7153    0.0000 H       1  UNL1        0.0235
     88 H           4.3650    0.8675    0.0000 H       1  UNL1        0.0235
     89 H           5.2128    0.6438    0.0000 H       1  UNL1        0.0235
     90 H           8.7805    2.7082    0.0000 H       1  UNL1        0.0310
     91 H           7.9823    2.6959    0.0000 H       1  UNL1        0.0310
     92 H           7.7671   -0.8086    0.0000 H       1  UNL1        0.0274
     93 H           8.1555   -1.5060    0.0000 H       1  UNL1        0.0274
     94 H           9.8313    2.0314    0.0000 H       1  UNL1        0.0572
     95 H           2.9129    2.1203    0.0000 H       1  UNL1        0.0234
     96 H           2.9599    1.2448    0.0000 H       1  UNL1        0.0234
     97 H           3.8355    1.2918    0.0000 H       1  UNL1        0.0234
     98 H           7.2208    0.1998    0.0000 H       1  UNL1        0.0238
     99 H           6.9906   -0.6462    0.0000 H       1  UNL1        0.0238
    100 H           7.8367   -0.8764    0.0000 H       1  UNL1        0.0238
    101 H           2.8562    4.6778    0.0000 H       1  UNL1        0.0317
    102 H           2.8586    3.8808    0.0000 H       1  UNL1        0.0317
    103 H          10.8579    0.0404    0.0000 H       1  UNL1        0.0335
    104 H          10.4534    0.7286    0.0000 H       1  UNL1        0.0335
    105 H           8.9063   -1.9511    0.0000 H       1  UNL1        0.0290
    106 H           9.7046   -1.9572    0.0000 H       1  UNL1        0.0290
    107 H          10.7871   -0.6298    0.0000 H       1  UNL1        0.0600
    108 H           2.4411    3.6649    0.0000 H       1  UNL1        0.2128
    109 H           4.3059    4.7511    0.0000 H       1  UNL1        0.0270
    110 H           4.3035    5.5482    0.0000 H       1  UNL1        0.0270
    111 H           3.0155    6.5488    0.0000 H       1  UNL1        0.0320
    112 H          10.5799   -2.1309    0.0000 H       1  UNL1        0.0937
    113 H           4.3007    6.4832    0.0000 H       1  UNL1        0.0563
    114 H           4.2983    7.2802    0.0000 H       1  UNL1        0.0563
    115 H           2.3253    6.6298    0.0000 H       1  UNL1        0.0233
    116 H           1.7071    6.0079    0.0000 H       1  UNL1        0.0233
    117 H           2.3290    5.3898    0.0000 H       1  UNL1        0.0233
    118 H          12.5198   -3.2509    0.0000 H       1  UNL1        0.0671
    119 H          11.9829   -4.5609    0.0000 H       1  UNL1        0.0648
    120 H           9.7139   -3.6309    0.0000 H       1  UNL1        0.0647
    121 H          10.5799   -4.7509    0.0000 H       1  UNL1        0.0651
    122 H          12.8489   -1.8209    0.0000 H       1  UNL1        0.2101
    123 H           3.1994    8.6105    0.0000 H       1  UNL1        0.0937
    124 H           8.9862   -4.9158    0.0000 H       1  UNL1        0.0584
    125 H           9.7833   -4.9158    0.0000 H       1  UNL1        0.0584
    126 H          13.3858   -4.1309    0.0000 H       1  UNL1        0.2100
    127 H           4.5110    8.0775    0.0000 H       1  UNL1        0.0671
    128 H          10.7877   -6.2509    0.0000 H       1  UNL1        0.0938
    129 H           5.6284    8.9468    0.0000 H       1  UNL1        0.0648
    130 H           3.1942   10.3425    0.0000 H       1  UNL1        0.0647
    131 H           5.4342   10.3492    0.0000 H       1  UNL1        0.0647
    132 H           8.5188   -3.3209    0.0000 H       1  UNL1        0.2095
    133 H          10.2508   -7.5609    0.0000 H       1  UNL1        0.0675
    134 H           5.9419    7.7526    0.0000 H       1  UNL1        0.2101
    135 H           3.8936   11.4227    0.0000 H       1  UNL1        0.0584
    136 H           3.2021   11.8192    0.0000 H       1  UNL1        0.0584
    137 H           8.8478   -7.7509    0.0000 H       1  UNL1        0.0648
    138 H           8.5188   -5.3209    0.0000 H       1  UNL1        0.0647
    139 H           6.6252   10.0237    0.0000 H       1  UNL1        0.2100
    140 H           7.9818   -6.6309    0.0000 H       1  UNL1        0.0647
    141 H           5.0000   11.7509    0.0000 H       1  UNL1        0.2100
    142 H           7.0421   -5.3332    0.0000 H       1  UNL1        0.0584
    143 H           7.4407   -6.0235    0.0000 H       1  UNL1        0.0584
    144 H          10.5799   -8.1309    0.0000 H       1  UNL1        0.0938
    145 H           2.0000   11.7419    0.0000 H       1  UNL1        0.2095
    146 H           8.8478   -8.7509    0.0000 H       1  UNL1        0.2100
    147 H           7.1158   -7.1309    0.0000 H       1  UNL1        0.2100
    148 H          12.5198   -9.2509    0.0000 H       1  UNL1        0.0671
    149 H          11.9829  -10.5609    0.0000 H       1  UNL1        0.0648
    150 H           7.1158   -4.1309    0.0000 H       1  UNL1        0.2095
    151 H           9.7139   -9.6309    0.0000 H       1  UNL1        0.0621
    152 H          10.5799  -10.7509    0.0000 H       1  UNL1        0.0646
    153 H          13.3858   -8.7509    0.0000 H       1  UNL1        0.2101
    154 H           9.0748   -9.9040    0.0000 H       1  UNL1        0.0255
    155 H           8.8478  -10.7509    0.0000 H       1  UNL1        0.0255
    156 H           9.6948  -10.9778    0.0000 H       1  UNL1        0.0255
    157 H          12.8489  -11.0609    0.0000 H       1  UNL1        0.2100
    158 H          10.5799  -11.7509    0.0000 H       1  UNL1        0.2100
@<TRIPOS>BOND
     1     1    28    1
     2     1    35    1
     3     2    35    1
     4     2   108    1
     5     3    46    1
     6     3    49    1
     7     4    49    1
     8     4    54    1
     9     5    50    1
    10     5    56    1
    11     6    52    1
    12     6   122    1
    13     7    53    1
    14     7   126    1
    15     8    55    1
    16     8    59    1
    17     9    56    1
    18     9    61    1
    19    10    57    1
    20    10   132    1
    21    11    58    1
    22    11   134    1
    23    12    59    1
    24    12    66    1
    25    13    60    1
    26    13   139    1
    27    14    62    1
    28    14   141    1
    29    15    63    1
    30    15    69    1
    31    16    64    1
    32    16   145    1
    33    17    65    1
    34    17   146    1
    35    18    67    1
    36    18   147    1
    37    19    69    1
    38    19    72    1
    39    20    68    1
    40    20   150    1
    41    21    70    1
    42    21   153    1
    43    22    71    1
    44    22   157    1
    45    23    73    1
    46    23   158    1
    47    24    25    1
    48    24    26    1
    49    24    31    1
    50    24    36    1
    51    25    27    1
    52    25    30    1
    53    25    75    1
    54    26    28    1
    55    26    32    1
    56    26    76    1
    57    27    29    1
    58    27    37    1
    59    27    77    1
    60    28    30    1
    61    28    78    1
    62    29    33    1
    63    29    34    1
    64    29    79    1
    65    30    80    1
    66    30    81    1
    67    31    33    1
    68    31    82    1
    69    31    83    1
    70    32    35    1
    71    32    41    1
    72    32    84    1
    73    33    85    1
    74    33    86    1
    75    34    38    1
    76    34    39    1
    77    34    42    1
    78    35    43    1
    79    36    87    1
    80    36    88    1
    81    36    89    1
    82    37    40    1
    83    37    90    1
    84    37    91    1
    85    38    40    2
    86    38    44    1
    87    39    45    1
    88    39    92    1
    89    39    93    1
    90    40    94    1
    91    41    95    1
    92    41    96    1
    93    41    97    1
    94    42    98    1
    95    42    99    1
    96    42   100    1
    97    43    47    1
    98    43   101    1
    99    43   102    1
   100    44    46    1
   101    44   103    1
   102    44   104    1
   103    45    46    1
   104    45   105    1
   105    45   106    1
   106    46   107    1
   107    47    48    1
   108    47   109    1
   109    47   110    1
   110    48    50    1
   111    48    51    1
   112    48   111    1
   113    49    52    1
   114    49   112    1
   115    50   113    1
   116    50   114    1
   117    51   115    1
   118    51   116    1
   119    51   117    1
   120    52    53    1
   121    52   118    1
   122    53    55    1
   123    53   119    1
   124    54    55    1
   125    54    57    1
   126    54   120    1
   127    55   121    1
   128    56    58    1
   129    56   123    1
   130    57   124    1
   131    57   125    1
   132    58    60    1
   133    58   127    1
   134    59    63    1
   135    59   128    1
   136    60    62    1
   137    60   129    1
   138    61    62    1
   139    61    64    1
   140    61   130    1
   141    62   131    1
   142    63    65    1
   143    63   133    1
   144    64   135    1
   145    64   136    1
   146    65    67    1
   147    65   137    1
   148    66    67    1
   149    66    68    1
   150    66   138    1
   151    67   140    1
   152    68   142    1
   153    68   143    1
   154    69    70    1
   155    69   144    1
   156    70    71    1
   157    70   148    1
   158    71    73    1
   159    71   149    1
   160    72    73    1
   161    72    74    1
   162    72   151    1
   163    73   152    1
   164    74   154    1
   165    74   155    1
   166    74   156    1
