@<TRIPOS>MOLECULE
IMPHY002981
 55 60 0 0 0
SMALL
GASTEIGER

@<TRIPOS>ATOM
      1 O           2.0078    3.0429    0.0000 O.3     1  UNL1       -0.3662
      2 O           4.6660    3.4801    0.0000 O.3     1  UNL1       -0.3914
      3 O           6.3981    3.4801    0.0000 O.3     1  UNL1       -0.4646
      4 O           7.2641    1.9801    0.0000 O.2     1  UNL1       -0.2453
      5 O           6.1101   -3.2883    0.0000 O.3     1  UNL1       -0.4951
      6 N           2.9061    0.4454    0.0000 N.3     1  UNL1       -0.2949
      7 N           6.2691    0.3130    0.0000 N.pl3   1  UNL1       -0.3163
      8 C           3.8000    1.9801    0.0000 C.3     1  UNL1        0.0459
      9 C           3.8000    0.9801    0.0000 C.3     1  UNL1        0.0361
     10 C           4.6660    0.4801    0.0000 C.3     1  UNL1        0.0532
     11 C           2.9061    2.5147    0.0000 C.3     1  UNL1        0.0962
     12 C           2.0000    2.0009    0.0000 C.3     1  UNL1        0.0985
     13 C           2.0000    0.9592    0.0000 C.3     1  UNL1        0.0280
     14 C           4.6660    2.4801    0.0000 C.3     1  UNL1       -0.0075
     15 C           4.3009   -0.4443    0.0000 C.3     1  UNL1       -0.0238
     16 C           3.3073   -0.4638    0.0000 C.3     1  UNL1        0.0005
     17 C           3.8000    2.9801    0.0000 C.3     1  UNL1        0.0623
     18 C           5.5321    0.9801    0.0000 C.2     1  UNL1        0.0304
     19 C           4.8752   -0.4918    0.0000 C.ar    1  UNL1       -0.0127
     20 C           5.5321    1.9801    0.0000 C.2     1  UNL1        0.0551
     21 C           5.8640   -0.5948    0.0000 C.ar    1  UNL1        0.0388
     22 C           2.9340    3.4801    0.0000 C.3     1  UNL1       -0.0383
     23 C           4.2545   -1.3205    0.0000 C.ar    1  UNL1       -0.0524
     24 C           6.3981    2.4801    0.0000 C.2     1  UNL1        0.3364
     25 C           6.3005   -1.5338    0.0000 C.ar    1  UNL1        0.0015
     26 C           4.6692   -2.2693    0.0000 C.ar    1  UNL1       -0.0196
     27 C           5.6990   -2.3767    0.0000 C.ar    1  UNL1        0.1219
     28 C           7.2641    3.9801    0.0000 C.3     1  UNL1        0.0820
     29 C           5.5261   -4.1001    0.0000 C.3     1  UNL1        0.0788
     30 H           3.2607    1.2859    0.0000 H       1  UNL1        0.0482
     31 H           3.2223    3.0480    0.0000 H       1  UNL1        0.0629
     32 H           1.3800    2.0032    0.0000 H       1  UNL1        0.0635
     33 H           1.3891    1.0653    0.0000 H       1  UNL1        0.0453
     34 H           1.7909    0.3756    0.0000 H       1  UNL1        0.0453
     35 H           5.0646    2.9550    0.0000 H       1  UNL1        0.0323
     36 H           4.2675    2.9550    0.0000 H       1  UNL1        0.0323
     37 H           4.2315   -1.0603    0.0000 H       1  UNL1        0.0290
     38 H           4.9025   -0.5942    0.0000 H       1  UNL1        0.0290
     39 H           2.7121   -0.6373    0.0000 H       1  UNL1        0.0427
     40 H           3.4010   -1.0767    0.0000 H       1  UNL1        0.0427
     41 H           3.8000    3.6001    0.0000 H       1  UNL1        0.0597
     42 H           6.8758    0.4408    0.0000 H       1  UNL1        0.1519
     43 H           3.2440    4.0170    0.0000 H       1  UNL1        0.0255
     44 H           2.3970    3.7901    0.0000 H       1  UNL1        0.0255
     45 H           2.6240    2.9431    0.0000 H       1  UNL1        0.0255
     46 H           3.6386   -1.2491    0.0000 H       1  UNL1        0.0622
     47 H           4.6660    4.1001    0.0000 H       1  UNL1        0.2098
     48 H           6.9178   -1.5909    0.0000 H       1  UNL1        0.0673
     49 H           4.3032   -2.7698    0.0000 H       1  UNL1        0.0654
     50 H           7.5741    3.4431    0.0000 H       1  UNL1        0.0661
     51 H           7.8010    4.2901    0.0000 H       1  UNL1        0.0661
     52 H           6.9541    4.5170    0.0000 H       1  UNL1        0.0661
     53 H           5.0228   -3.7380    0.0000 H       1  UNL1        0.0660
     54 H           5.1641   -4.6034    0.0000 H       1  UNL1        0.0660
     55 H           6.0294   -4.4621    0.0000 H       1  UNL1        0.0660
@<TRIPOS>BOND
     1     1    11    1
     2     1    12    1
     3     2    17    1
     4     2    47    1
     5     3    24    1
     6     3    28    1
     7     4    24    2
     8     5    27    1
     9     5    29    1
    10     6     9    1
    11     6    13    1
    12     6    16    1
    13     7    18    1
    14     7    21    1
    15     7    42    1
    16     8     9    1
    17     8    11    1
    18     8    14    1
    19     8    17    1
    20     9    10    1
    21     9    30    1
    22    10    15    1
    23    10    18    1
    24    10    19    1
    25    11    12    1
    26    11    31    1
    27    12    13    1
    28    12    32    1
    29    13    33    1
    30    13    34    1
    31    14    20    1
    32    14    35    1
    33    14    36    1
    34    15    16    1
    35    15    37    1
    36    15    38    1
    37    16    39    1
    38    16    40    1
    39    17    22    1
    40    17    41    1
    41    18    20    2
    42    19    21   ar
    43    19    23   ar
    44    20    24    1
    45    21    25   ar
    46    22    43    1
    47    22    44    1
    48    22    45    1
    49    23    26   ar
    50    23    46    1
    51    25    27   ar
    52    25    48    1
    53    26    27   ar
    54    26    49    1
    55    28    50    1
    56    28    51    1
    57    28    52    1
    58    29    53    1
    59    29    54    1
    60    29    55    1
