@<TRIPOS>MOLECULE
IMPHY011859
 83 87 0 0 0
SMALL
GASTEIGER

@<TRIPOS>ATOM
      1 O          11.1246    2.5364    0.0000 O.3     1  UNL1       -0.3915
      2 C           6.6507   -1.1080    0.0000 C.3     1  UNL1       -0.0231
      3 C           5.7847   -0.6080    0.0000 C.3     1  UNL1       -0.0230
      4 C           7.5167   -0.6080    0.0000 C.3     1  UNL1       -0.0294
      5 C           7.5167    0.3920    0.0000 C.3     1  UNL1       -0.0254
      6 C           4.8746   -1.1148    0.0000 C.3     1  UNL1       -0.0292
      7 C           8.4106    0.9267    0.0000 C.3     1  UNL1       -0.0295
      8 C           4.8666   -2.1564    0.0000 C.3     1  UNL1       -0.0287
      9 C           5.7847    0.3920    0.0000 C.3     1  UNL1       -0.0463
     10 C           9.3167    0.4128    0.0000 C.3     1  UNL1       -0.0238
     11 C           6.6507    0.8920    0.0000 C.3     1  UNL1       -0.0466
     12 C           6.6667   -2.1495    0.0000 C.3     1  UNL1       -0.0463
     13 C           8.4106   -1.1426    0.0000 C.3     1  UNL1       -0.0487
     14 C           5.7687   -2.6772    0.0000 C.3     1  UNL1       -0.0468
     15 C           9.3167   -0.6288    0.0000 C.3     1  UNL1       -0.0467
     16 C           3.9478   -0.5507    0.0000 C.3     1  UNL1       -0.0440
     17 C           7.5167   -1.6080    0.0000 C.3     1  UNL1       -0.0588
     18 C           4.9186   -0.1080    0.0000 C.3     1  UNL1       -0.0588
     19 C          10.2605    0.9481    0.0000 C.3     1  UNL1       -0.0121
     20 C           8.3856    2.0114    0.0000 C.3     1  UNL1       -0.0469
     21 C           3.9312   -2.7062    0.0000 C.3     1  UNL1       -0.0469
     22 C           7.5167    1.3920    0.0000 C.3     1  UNL1       -0.0590
     23 C           2.9999   -1.0787    0.0000 C.3     1  UNL1       -0.0346
     24 C           2.9916   -2.1636    0.0000 C.3     1  UNL1       -0.0474
     25 C           4.8589   -3.1564    0.0000 C.3     1  UNL1       -0.0593
     26 C          10.2605    2.0331    0.0000 C.3     1  UNL1        0.0583
     27 C          10.1866   -0.0805    0.0000 C.3     1  UNL1       -0.0590
     28 C           9.3167    2.5683    0.0000 C.3     1  UNL1       -0.0263
     29 C          11.1246    0.4447    0.0000 C.3     1  UNL1       -0.0596
     30 C           2.0000   -1.0671    0.0000 C.3     1  UNL1       -0.0598
     31 C           2.5100   -0.2069    0.0000 C.3     1  UNL1       -0.0598
     32 H           8.2561   -0.1887    0.0000 H       1  UNL1        0.0312
     33 H           5.6058   -1.5483    0.0000 H       1  UNL1        0.0312
     34 H           9.1401    1.3630    0.0000 H       1  UNL1        0.0311
     35 H           5.5726    0.9746    0.0000 H       1  UNL1        0.0271
     36 H           5.1741    0.2844    0.0000 H       1  UNL1        0.0271
     37 H           7.0492    1.3670    0.0000 H       1  UNL1        0.0271
     38 H           6.2522    1.3670    0.0000 H       1  UNL1        0.0271
     39 H           6.8848   -2.7299    0.0000 H       1  UNL1        0.0271
     40 H           7.2759   -2.0340    0.0000 H       1  UNL1        0.0271
     41 H           8.0060   -1.6124    0.0000 H       1  UNL1        0.0268
     42 H           8.8043   -1.6217    0.0000 H       1  UNL1        0.0268
     43 H           5.3714   -3.1532    0.0000 H       1  UNL1        0.0271
     44 H           6.1697   -3.1501    0.0000 H       1  UNL1        0.0271
     45 H           9.5258   -1.2125    0.0000 H       1  UNL1        0.0271
     46 H           9.9276   -0.5227    0.0000 H       1  UNL1        0.0271
     47 H           4.3560   -0.0841    0.0000 H       1  UNL1        0.0273
     48 H           3.5579   -0.0687    0.0000 H       1  UNL1        0.0273
     49 H           7.2067   -2.1449    0.0000 H       1  UNL1        0.0235
     50 H           8.0536   -1.9180    0.0000 H       1  UNL1        0.0235
     51 H           7.8267   -1.0710    0.0000 H       1  UNL1        0.0235
     52 H           5.2286    0.4290    0.0000 H       1  UNL1        0.0235
     53 H           4.3817    0.2020    0.0000 H       1  UNL1        0.0235
     54 H           4.6086   -0.6449    0.0000 H       1  UNL1        0.0235
     55 H          10.7980    1.2570    0.0000 H       1  UNL1        0.0328
     56 H           8.1631    2.5901    0.0000 H       1  UNL1        0.0269
     57 H           7.7773    1.8912    0.0000 H       1  UNL1        0.0269
     58 H           3.5339   -3.1821    0.0000 H       1  UNL1        0.0271
     59 H           4.3322   -3.1790    0.0000 H       1  UNL1        0.0271
     60 H           8.1367    1.3920    0.0000 H       1  UNL1        0.0235
     61 H           7.5167    2.0120    0.0000 H       1  UNL1        0.0235
     62 H           6.8967    1.3920    0.0000 H       1  UNL1        0.0235
     63 H           2.3816   -2.0529    0.0000 H       1  UNL1        0.0271
     64 H           2.7780   -2.7457    0.0000 H       1  UNL1        0.0271
     65 H           4.2389   -3.1516    0.0000 H       1  UNL1        0.0235
     66 H           4.8541   -3.7764    0.0000 H       1  UNL1        0.0235
     67 H           5.4789   -3.1612    0.0000 H       1  UNL1        0.0235
     68 H          10.7980    1.7241    0.0000 H       1  UNL1        0.0596
     69 H           9.8807   -0.6198    0.0000 H       1  UNL1        0.0235
     70 H          10.7259   -0.3863    0.0000 H       1  UNL1        0.0235
     71 H          10.4924    0.4588    0.0000 H       1  UNL1        0.0235
     72 H           9.7103    3.0473    0.0000 H       1  UNL1        0.0290
     73 H           8.9121    3.0381    0.0000 H       1  UNL1        0.0290
     74 H          10.8125   -0.0910    0.0000 H       1  UNL1        0.0233
     75 H          11.6603    0.1327    0.0000 H       1  UNL1        0.0233
     76 H          11.4367    0.9805    0.0000 H       1  UNL1        0.0233
     77 H           2.0072   -0.4472    0.0000 H       1  UNL1        0.0235
     78 H           1.3800   -1.0600    0.0000 H       1  UNL1        0.0235
     79 H           1.9928   -1.6871    0.0000 H       1  UNL1        0.0235
     80 H           3.0505    0.0968    0.0000 H       1  UNL1        0.0235
     81 H           2.2062    0.3335    0.0000 H       1  UNL1        0.0235
     82 H           1.9695   -0.5107    0.0000 H       1  UNL1        0.0235
     83 H          11.1222    3.1564    0.0000 H       1  UNL1        0.2098
@<TRIPOS>BOND
     1    26     1    1
     2     1    83    1
     3     2     3    1
     4     2     4    1
     5     2    12    1
     6     2    17    1
     7     3     6    1
     8     3     9    1
     9     3    18    1
    10     4     5    1
    11     4    13    1
    12     4    32    1
    13     5     7    1
    14     5    11    1
    15     5    22    1
    16     6     8    1
    17     6    16    1
    18     6    33    1
    19     7    10    1
    20     7    20    1
    21     7    34    1
    22     8    14    1
    23     8    21    1
    24     8    25    1
    25     9    11    1
    26     9    35    1
    27     9    36    1
    28    10    15    1
    29    10    19    1
    30    10    27    1
    31    11    37    1
    32    11    38    1
    33    12    14    1
    34    12    39    1
    35    12    40    1
    36    13    15    1
    37    13    41    1
    38    13    42    1
    39    14    43    1
    40    14    44    1
    41    15    45    1
    42    15    46    1
    43    16    23    1
    44    16    47    1
    45    16    48    1
    46    17    49    1
    47    17    50    1
    48    17    51    1
    49    18    52    1
    50    18    53    1
    51    18    54    1
    52    19    26    1
    53    19    29    1
    54    19    55    1
    55    20    28    1
    56    20    56    1
    57    20    57    1
    58    21    24    1
    59    21    58    1
    60    21    59    1
    61    22    60    1
    62    22    61    1
    63    22    62    1
    64    23    24    1
    65    23    30    1
    66    23    31    1
    67    24    63    1
    68    24    64    1
    69    25    65    1
    70    25    66    1
    71    25    67    1
    72    26    28    1
    73    26    68    1
    74    27    69    1
    75    27    70    1
    76    27    71    1
    77    28    72    1
    78    28    73    1
    79    29    74    1
    80    29    75    1
    81    29    76    1
    82    30    77    1
    83    30    78    1
    84    30    79    1
    85    31    80    1
    86    31    81    1
    87    31    82    1
