@<TRIPOS>MOLECULE
IMPHY007652
 76 81 0 0 0
SMALL
GASTEIGER

@<TRIPOS>ATOM
      1 O           5.6768   -2.1513    0.0000 O.3     1  UNL1       -0.3448
      2 O           4.0115   -1.0701    0.0000 O.3     1  UNL1       -0.3455
      3 O          11.1404   -0.4406    0.0000 O.3     1  UNL1       -0.3915
      4 O          12.0842    3.2279    0.0000 O.3     1  UNL1       -0.3918
      5 O           2.4075   -3.2818    0.0000 O.3     1  UNL1       -0.3866
      6 C           6.7442    0.0836    0.0000 C.3     1  UNL1       -0.0233
      7 C           7.6102   -0.4164    0.0000 C.3     1  UNL1       -0.0298
      8 C           8.4763    0.0836    0.0000 C.3     1  UNL1       -0.0319
      9 C           6.0072   -0.5835    0.0000 C.3     1  UNL1       -0.0015
     10 C           8.4763    1.0836    0.0000 C.3     1  UNL1       -0.0321
     11 C           6.4123   -1.4913    0.0000 C.3     1  UNL1        0.0660
     12 C           9.3702    1.6182    0.0000 C.3     1  UNL1       -0.0236
     13 C           7.4010   -1.3883    0.0000 C.3     1  UNL1       -0.0226
     14 C           6.7442    1.0836    0.0000 C.3     1  UNL1       -0.0467
     15 C           7.6102    1.5836    0.0000 C.3     1  UNL1       -0.0489
     16 C           5.0248   -0.6902    0.0000 C.3     1  UNL1        0.0160
     17 C          10.2763    1.1044    0.0000 C.3     1  UNL1       -0.0070
     18 C           9.3702   -0.4511    0.0000 C.3     1  UNL1       -0.0232
     19 C           4.8210   -1.6572    0.0000 C.3     1  UNL1        0.1734
     20 C          10.2763    0.0627    0.0000 C.3     1  UNL1        0.0589
     21 C           5.8782    0.5836    0.0000 C.3     1  UNL1       -0.0590
     22 C           9.3451    2.7029    0.0000 C.3     1  UNL1       -0.0447
     23 C          11.2201    1.6396    0.0000 C.3     1  UNL1       -0.0212
     24 C           8.5003    2.1115    0.0000 C.3     1  UNL1       -0.0590
     25 C          10.2763    3.2598    0.0000 C.3     1  UNL1       -0.0263
     26 C           4.3537    0.0512    0.0000 C.3     1  UNL1       -0.0572
     27 C           4.7173   -2.6518    0.0000 C.3     1  UNL1        0.0044
     28 C          11.2201    2.7246    0.0000 C.3     1  UNL1        0.0556
     29 C           3.8041   -3.0593    0.0000 C.3     1  UNL1       -0.0172
     30 C           2.9946   -2.4722    0.0000 C.3     1  UNL1        0.0868
     31 C           3.0983   -1.4776    0.0000 C.3     1  UNL1        0.0794
     32 C           2.0000   -2.3686    0.0000 C.3     1  UNL1       -0.0339
     33 H           8.2973   -0.9170    0.0000 H       1  UNL1        0.0310
     34 H           8.4697   -0.7664    0.0000 H       1  UNL1        0.0307
     35 H           5.6591    0.1919    0.0000 H       1  UNL1        0.0335
     36 H           9.2156    0.6642    0.0000 H       1  UNL1        0.0309
     37 H           6.7570   -2.2683    0.0000 H       1  UNL1        0.0600
     38 H           7.4001   -2.0083    0.0000 H       1  UNL1        0.0293
     39 H           8.0175   -1.4543    0.0000 H       1  UNL1        0.0293
     40 H           6.5322    1.6662    0.0000 H       1  UNL1        0.0271
     41 H           6.1336    0.9759    0.0000 H       1  UNL1        0.0271
     42 H           8.0088    2.0585    0.0000 H       1  UNL1        0.0268
     43 H           7.2117    2.0585    0.0000 H       1  UNL1        0.0268
     44 H           4.4263   -0.8520    0.0000 H       1  UNL1        0.0354
     45 H          11.0108    0.6765    0.0000 H       1  UNL1        0.0332
     46 H           8.9656   -0.9209    0.0000 H       1  UNL1        0.0293
     47 H           9.7638   -0.9301    0.0000 H       1  UNL1        0.0293
     48 H          10.2727   -0.5572    0.0000 H       1  UNL1        0.0596
     49 H           6.1882    1.1205    0.0000 H       1  UNL1        0.0235
     50 H           5.3412    0.8936    0.0000 H       1  UNL1        0.0235
     51 H           5.5682    0.0466    0.0000 H       1  UNL1        0.0235
     52 H           9.1226    3.2816    0.0000 H       1  UNL1        0.0271
     53 H           8.7369    2.5827    0.0000 H       1  UNL1        0.0271
     54 H          11.4291    1.0559    0.0000 H       1  UNL1        0.0294
     55 H          11.8309    1.7457    0.0000 H       1  UNL1        0.0294
     56 H           8.8062    2.6508    0.0000 H       1  UNL1        0.0235
     57 H           7.9610    2.4174    0.0000 H       1  UNL1        0.0235
     58 H           8.1945    1.5722    0.0000 H       1  UNL1        0.0235
     59 H          10.6699    3.7389    0.0000 H       1  UNL1        0.0290
     60 H           9.8717    3.7296    0.0000 H       1  UNL1        0.0290
     61 H           4.8134    0.4672    0.0000 H       1  UNL1        0.0234
     62 H           3.9377    0.5109    0.0000 H       1  UNL1        0.0234
     63 H           3.8940   -0.3649    0.0000 H       1  UNL1        0.0234
     64 H           4.8678   -3.2532    0.0000 H       1  UNL1        0.0318
     65 H           5.3358   -2.6080    0.0000 H       1  UNL1        0.0318
     66 H          11.7576    2.4156    0.0000 H       1  UNL1        0.0593
     67 H           3.3585   -3.4904    0.0000 H       1  UNL1        0.0295
     68 H           4.1513   -3.5730    0.0000 H       1  UNL1        0.0295
     69 H          11.1380   -1.0606    0.0000 H       1  UNL1        0.2098
     70 H           2.9478   -0.8762    0.0000 H       1  UNL1        0.0589
     71 H           2.4798   -1.5214    0.0000 H       1  UNL1        0.0589
     72 H          12.0818    3.8479    0.0000 H       1  UNL1        0.2098
     73 H           2.0643   -1.7519    0.0000 H       1  UNL1        0.0258
     74 H           1.3833   -2.3043    0.0000 H       1  UNL1        0.0258
     75 H           1.9357   -2.9852    0.0000 H       1  UNL1        0.0258
     76 H           2.6602   -3.8479    0.0000 H       1  UNL1        0.2102
@<TRIPOS>BOND
     1     1    11    1
     2    19     1    1
     3     2    19    1
     4     2    31    1
     5    20     3    1
     6     3    69    1
     7    28     4    1
     8     4    72    1
     9    30     5    1
    10     5    76    1
    11     6     7    1
    12     6     9    1
    13     6    14    1
    14     6    21    1
    15     7     8    1
    16     7    13    1
    17     7    33    1
    18     8    10    1
    19     8    18    1
    20     8    34    1
    21     9    11    1
    22     9    16    1
    23     9    35    1
    24    10    12    1
    25    10    15    1
    26    10    36    1
    27    11    13    1
    28    11    37    1
    29    12    17    1
    30    12    22    1
    31    12    24    1
    32    13    38    1
    33    13    39    1
    34    14    15    1
    35    14    40    1
    36    14    41    1
    37    15    42    1
    38    15    43    1
    39    16    19    1
    40    16    26    1
    41    16    44    1
    42    17    20    1
    43    17    23    1
    44    17    45    1
    45    18    20    1
    46    18    46    1
    47    18    47    1
    48    19    27    1
    49    20    48    1
    50    21    49    1
    51    21    50    1
    52    21    51    1
    53    22    25    1
    54    22    52    1
    55    22    53    1
    56    23    28    1
    57    23    54    1
    58    23    55    1
    59    24    56    1
    60    24    57    1
    61    24    58    1
    62    25    28    1
    63    25    59    1
    64    25    60    1
    65    26    61    1
    66    26    62    1
    67    26    63    1
    68    27    29    1
    69    27    64    1
    70    27    65    1
    71    28    66    1
    72    29    30    1
    73    29    67    1
    74    29    68    1
    75    30    31    1
    76    30    32    1
    77    31    70    1
    78    31    71    1
    79    32    73    1
    80    32    74    1
    81    32    75    1
