@<TRIPOS>MOLECULE
IMPHY014967
 72 76 0 0 0
SMALL
GASTEIGER

@<TRIPOS>ATOM
      1 O           6.8671   -1.7857    0.0000 O.3     1  UNL1       -0.3366
      2 O           5.1350    0.2143    0.0000 O.3     1  UNL1       -0.3313
      3 O           6.0010   -3.2857    0.0000 O.3     1  UNL1       -0.3431
      4 O           6.8671    0.2143    0.0000 O.3     1  UNL1       -0.4532
      5 O           5.1350   -2.7857    0.0000 O.3     1  UNL1       -0.3863
      6 O           3.4030   -1.7857    0.0000 O.3     1  UNL1       -0.3865
      7 O           8.5991   -2.7857    0.0000 O.3     1  UNL1       -0.3841
      8 O           8.5991   -4.7857    0.0000 O.3     1  UNL1       -0.3864
      9 O           6.8671   -5.7857    0.0000 O.3     1  UNL1       -0.3866
     10 O           2.5369   -0.2857    0.0000 O.3     1  UNL1       -0.3924
     11 O           7.7331    2.7143    0.0000 O.2     1  UNL1       -0.4507
     12 O           5.1350    1.2143    0.0000 O.2     1  UNL1       -0.2830
     13 O           4.2308    2.7112    0.0000 O.3     1  UNL1       -0.5058
     14 O           5.9889    5.7836    0.0000 O.3     1  UNL1       -0.5065
     15 O          11.1972   -0.2857    0.0000 O.3     1  UNL1       -0.5068
     16 C           6.0010   -1.2857    0.0000 C.3     1  UNL1        0.1519
     17 C           5.1350   -1.7857    0.0000 C.3     1  UNL1        0.1155
     18 C           4.2690   -1.2857    0.0000 C.3     1  UNL1        0.1120
     19 C           6.8671   -2.7857    0.0000 C.3     1  UNL1        0.1885
     20 C           6.0010   -0.2857    0.0000 C.3     1  UNL1        0.2315
     21 C           7.7331   -3.2857    0.0000 C.3     1  UNL1        0.1341
     22 C           4.2690   -0.2857    0.0000 C.3     1  UNL1        0.1140
     23 C           7.7331   -4.2857    0.0000 C.3     1  UNL1        0.1140
     24 C           6.8671   -4.7857    0.0000 C.3     1  UNL1        0.1095
     25 C           6.0010   -4.2857    0.0000 C.3     1  UNL1        0.0873
     26 C           3.4030    0.2143    0.0000 C.3     1  UNL1        0.0731
     27 C           5.1350   -4.7857    0.0000 C.3     1  UNL1       -0.0361
     28 C           6.8671    1.2143    0.0000 C.ar    1  UNL1        0.2138
     29 C           7.7331    1.7143    0.0000 C.ar    1  UNL1        0.1809
     30 C           6.0010    1.7143    0.0000 C.ar    1  UNL1        0.2382
     31 C           6.0010    2.7143    0.0000 C.ar    1  UNL1        0.1092
     32 C           8.5991    1.2143    0.0000 C.ar    1  UNL1        0.0213
     33 C           6.8671    3.2143    0.0000 C.ar    1  UNL1        0.1465
     34 C           5.0910    3.2212    0.0000 C.ar    1  UNL1        0.1348
     35 C           6.8831    4.2558    0.0000 C.ar    1  UNL1        0.0231
     36 C           8.5991    0.2143    0.0000 C.ar    1  UNL1       -0.0475
     37 C           9.4651    1.7143    0.0000 C.ar    1  UNL1       -0.0475
     38 C           5.0830    4.2628    0.0000 C.ar    1  UNL1        0.0223
     39 C           5.9851    4.7836    0.0000 C.ar    1  UNL1        0.1239
     40 C           9.4651   -0.2857    0.0000 C.ar    1  UNL1       -0.0195
     41 C          10.3312    1.2143    0.0000 C.ar    1  UNL1       -0.0195
     42 C          10.3312    0.2143    0.0000 C.ar    1  UNL1        0.1169
     43 H           6.0010   -1.9057    0.0000 H       1  UNL1        0.0687
     44 H           4.5981   -2.0957    0.0000 H       1  UNL1        0.0648
     45 H           4.2690   -1.9057    0.0000 H       1  UNL1        0.0647
     46 H           7.4040   -2.4757    0.0000 H       1  UNL1        0.0938
     47 H           6.0010    0.3343    0.0000 H       1  UNL1        0.1084
     48 H           8.2700   -3.5957    0.0000 H       1  UNL1        0.0671
     49 H           4.2690    0.3343    0.0000 H       1  UNL1        0.0647
     50 H           7.7331   -4.9057    0.0000 H       1  UNL1        0.0648
     51 H           7.4040   -5.0957    0.0000 H       1  UNL1        0.0646
     52 H           5.4641   -3.9757    0.0000 H       1  UNL1        0.0621
     53 H           3.8015    0.6893    0.0000 H       1  UNL1        0.0584
     54 H           3.0044    0.6893    0.0000 H       1  UNL1        0.0584
     55 H           4.8250   -4.2487    0.0000 H       1  UNL1        0.0255
     56 H           4.5981   -5.0957    0.0000 H       1  UNL1        0.0255
     57 H           5.4450   -5.3226    0.0000 H       1  UNL1        0.0255
     58 H           4.5981   -3.0957    0.0000 H       1  UNL1        0.2100
     59 H           3.4030   -2.4057    0.0000 H       1  UNL1        0.2100
     60 H           9.1360   -3.0957    0.0000 H       1  UNL1        0.2101
     61 H           8.5991   -5.4057    0.0000 H       1  UNL1        0.2100
     62 H           6.3301   -6.0957    0.0000 H       1  UNL1        0.2100
     63 H           2.0000    0.0243    0.0000 H       1  UNL1        0.2095
     64 H           7.4236    4.5596    0.0000 H       1  UNL1        0.0691
     65 H           8.0622   -0.0957    0.0000 H       1  UNL1        0.0626
     66 H           9.4651    2.3343    0.0000 H       1  UNL1        0.0626
     67 H           4.5449    4.5707    0.0000 H       1  UNL1        0.0691
     68 H           9.4651   -0.9057    0.0000 H       1  UNL1        0.0654
     69 H          10.8681    1.5243    0.0000 H       1  UNL1        0.0654
     70 H           3.6904    3.0150    0.0000 H       1  UNL1        0.2922
     71 H           5.4532    6.0957    0.0000 H       1  UNL1        0.2921
     72 H          11.1972   -0.9057    0.0000 H       1  UNL1        0.2921
@<TRIPOS>BOND
     1    16     1    1
     2    19     1    1
     3     2    20    1
     4     2    22    1
     5     3    19    1
     6     3    25    1
     7    20     4    1
     8     4    28    1
     9    17     5    1
    10     5    58    1
    11    18     6    1
    12     6    59    1
    13    21     7    1
    14     7    60    1
    15    23     8    1
    16     8    61    1
    17    24     9    1
    18     9    62    1
    19    10    26    1
    20    10    63    1
    21    11    29   ar
    22    11    33   ar
    23    12    30    2
    24    13    34    1
    25    13    70    1
    26    14    39    1
    27    14    71    1
    28    15    42    1
    29    15    72    1
    30    16    17    1
    31    16    20    1
    32    16    43    1
    33    17    18    1
    34    17    44    1
    35    18    22    1
    36    18    45    1
    37    19    21    1
    38    19    46    1
    39    20    47    1
    40    21    23    1
    41    21    48    1
    42    22    26    1
    43    22    49    1
    44    23    24    1
    45    23    50    1
    46    24    25    1
    47    24    51    1
    48    25    27    1
    49    25    52    1
    50    26    53    1
    51    26    54    1
    52    27    55    1
    53    27    56    1
    54    27    57    1
    55    28    29   ar
    56    28    30   ar
    57    29    32    1
    58    30    31   ar
    59    31    33   ar
    60    31    34   ar
    61    32    36   ar
    62    32    37   ar
    63    33    35   ar
    64    34    38   ar
    65    35    39   ar
    66    35    64    1
    67    36    40   ar
    68    36    65    1
    69    37    41   ar
    70    37    66    1
    71    38    39   ar
    72    38    67    1
    73    40    42   ar
    74    40    68    1
    75    41    42   ar
    76    41    69    1
