@<TRIPOS>MOLECULE
IMPHY009245
 40 44 0 0 0
SMALL
GASTEIGER

@<TRIPOS>ATOM
      1 CL          6.6777    4.8627    0.0000 Cl      1  UNL1        0.0000
      2 O           3.1113    8.6908    0.0000 O.3     2  UNL2       -0.4518
      3 O           1.6659    9.5402    0.0000 O.3     2  UNL2       -0.4526
      4 O           4.1121    1.5958    0.0000 O.3     2  UNL2       -0.4526
      5 O           2.6066    0.7110    0.0000 O.3     2  UNL2       -0.4526
      6 N           3.1882    5.4604    0.0000 N.ar    2  UNL2       -0.1986
      7 C           2.3222    4.9604    0.0000 C.ar    2  UNL2        0.2231
      8 C           1.4562    5.4604    0.0000 C.ar    2  UNL2        0.0548
      9 C           1.4562    6.4604    0.0000 C.ar    2  UNL2        0.0050
     10 C           2.3382    3.9188    0.0000 C.ar    2  UNL2        0.0576
     11 C           2.3222    6.9604    0.0000 C.ar    2  UNL2        0.0917
     12 C           1.4402    3.3911    0.0000 C.ar    2  UNL2       -0.0079
     13 C           3.1882    6.4604    0.0000 C.ar    2  UNL2        0.1829
     14 C           2.3382    8.0019    0.0000 C.ar    2  UNL2        0.1796
     15 C           0.5462    4.9535    0.0000 C.ar    2  UNL2       -0.0471
     16 C           0.5381    3.9119    0.0000 C.ar    2  UNL2       -0.0529
     17 C           3.2902    3.3982    0.0000 C.ar    2  UNL2       -0.0021
     18 C           0.5462    6.9672    0.0000 C.ar    2  UNL2       -0.0494
     19 C           1.4402    8.5296    0.0000 C.ar    2  UNL2        0.1671
     20 C           1.4318    2.3061    0.0000 C.ar    2  UNL2       -0.0082
     21 C           3.3069    2.3134    0.0000 C.ar    2  UNL2        0.1670
     22 C           2.3715    1.7636    0.0000 C.ar    2  UNL2        0.1668
     23 C           4.0542    4.9604    0.0000 C.3     2  UNL2        0.1410
     24 C           0.5381    8.0088    0.0000 C.ar    2  UNL2       -0.0155
     25 C           2.6966    9.6396    0.0000 C.3     2  UNL2        0.2333
     26 C           3.6802    0.6075    0.0000 C.3     2  UNL2        0.2332
     27 H           3.7251    6.7704    0.0000 H       2  UNL2        0.1384
     28 H           0.0128    5.2697    0.0000 H       2  UNL2        0.0626
     29 H           0.0000    3.6040    0.0000 H       2  UNL2        0.0624
     30 H           3.8210    3.7185    0.0000 H       2  UNL2        0.0663
     31 H           0.0128    6.6510    0.0000 H       2  UNL2        0.0625
     32 H           0.8937    1.9982    0.0000 H       2  UNL2        0.0661
     33 H           3.7442    4.4234    0.0000 H       2  UNL2        0.0993
     34 H           4.5912    4.6504    0.0000 H       2  UNL2        0.0993
     35 H           4.3642    5.4973    0.0000 H       2  UNL2        0.0993
     36 H           0.0000    8.3167    0.0000 H       2  UNL2        0.0655
     37 H           3.2877    9.8268    0.0000 H       2  UNL2        0.1166
     38 H           2.5726   10.2470    0.0000 H       2  UNL2        0.1166
     39 H           3.5561    0.0000    0.0000 H       2  UNL2        0.1166
     40 H           4.2712    0.4203    0.0000 H       2  UNL2        0.1166
@<TRIPOS>UNITY_ATOM_ATTR
1 1
charge -1
6 1
charge 1
@<TRIPOS>BOND
     1     2    14    1
     2     2    25    1
     3     3    19    1
     4     3    25    1
     5     4    21    1
     6     4    26    1
     7     5    22    1
     8     5    26    1
     9     6     7   ar
    10     6    13   ar
    11     6    23    1
    12     7     8   ar
    13     7    10   ar
    14     8     9   ar
    15     8    15   ar
    16     9    11   ar
    17     9    18   ar
    18    10    12   ar
    19    10    17   ar
    20    11    13   ar
    21    11    14   ar
    22    12    16   ar
    23    12    20   ar
    24    13    27    1
    25    14    19   ar
    26    15    16   ar
    27    15    28    1
    28    16    29    1
    29    17    21   ar
    30    17    30    1
    31    18    24   ar
    32    18    31    1
    33    19    24   ar
    34    20    22   ar
    35    20    32    1
    36    21    22   ar
    37    23    33    1
    38    23    34    1
    39    23    35    1
    40    24    36    1
    41    25    37    1
    42    25    38    1
    43    26    39    1
    44    26    40    1
