@<TRIPOS>MOLECULE
IMPHY006560
 23 23 0 0 0
SMALL
GASTEIGER

@<TRIPOS>ATOM
      1 O           2.0000    1.2500    0.0000 O.2     1  UNL1       -0.2918
      2 C           3.7320    1.2500    0.0000 C.3     1  UNL1        0.0165
      3 C           2.8660    0.7500    0.0000 C.2     1  UNL1        0.1657
      4 C           3.7320    2.2500    0.0000 C.3     1  UNL1       -0.0556
      5 C           4.5981    0.7500    0.0000 C.3     1  UNL1       -0.0556
      6 C           2.8660   -0.2500    0.0000 C.ar    1  UNL1        0.0177
      7 C           2.0000   -0.7500    0.0000 C.ar    1  UNL1       -0.0513
      8 C           3.7320   -0.7500    0.0000 C.ar    1  UNL1       -0.0513
      9 C           2.0000   -1.7500    0.0000 C.ar    1  UNL1       -0.0611
     10 C           3.7320   -1.7500    0.0000 C.ar    1  UNL1       -0.0611
     11 C           2.8660   -2.2500    0.0000 C.ar    1  UNL1       -0.0617
     12 H           3.7320    0.6300    0.0000 H       1  UNL1        0.0375
     13 H           4.3520    2.2500    0.0000 H       1  UNL1        0.0236
     14 H           3.7320    2.8700    0.0000 H       1  UNL1        0.0236
     15 H           3.1120    2.2500    0.0000 H       1  UNL1        0.0236
     16 H           4.2881    0.2131    0.0000 H       1  UNL1        0.0236
     17 H           5.1350    0.4400    0.0000 H       1  UNL1        0.0236
     18 H           4.9081    1.2869    0.0000 H       1  UNL1        0.0236
     19 H           1.4631   -0.4400    0.0000 H       1  UNL1        0.0624
     20 H           4.2690   -0.4400    0.0000 H       1  UNL1        0.0624
     21 H           1.4631   -2.0600    0.0000 H       1  UNL1        0.0618
     22 H           4.2690   -2.0600    0.0000 H       1  UNL1        0.0618
     23 H           2.8660   -2.8700    0.0000 H       1  UNL1        0.0618
@<TRIPOS>BOND
     1     1     3    2
     2     2     3    1
     3     2     4    1
     4     2     5    1
     5     2    12    1
     6     3     6    1
     7     4    13    1
     8     4    14    1
     9     4    15    1
    10     5    16    1
    11     5    17    1
    12     5    18    1
    13     6     7   ar
    14     6     8   ar
    15     7     9   ar
    16     7    19    1
    17     8    10   ar
    18     8    20    1
    19     9    11   ar
    20     9    21    1
    21    10    11   ar
    22    10    22    1
    23    11    23    1
