@<TRIPOS>MOLECULE
IMPHY016443
 26 26 0 0 0
SMALL
GASTEIGER

@<TRIPOS>ATOM
      1 S           6.3301    3.5000    0.0000 S.2     1  UNL1        0.0203
      2 N           4.5981    2.5000    0.0000 N.2     1  UNL1       -0.2346
      3 C           3.7320    0.0000    0.0000 C.3     1  UNL1       -0.0474
      4 C           2.8660   -0.5000    0.0000 C.3     1  UNL1       -0.0276
      5 C           3.7320    1.0000    0.0000 C.3     1  UNL1       -0.0324
      6 C           2.8660   -1.5000    0.0000 C.ar    1  UNL1       -0.0474
      7 C           4.5981    1.5000    0.0000 C.3     1  UNL1        0.0495
      8 C           2.0000   -2.0000    0.0000 C.ar    1  UNL1       -0.0586
      9 C           3.7320   -2.0000    0.0000 C.ar    1  UNL1       -0.0586
     10 C           2.0000   -3.0000    0.0000 C.ar    1  UNL1       -0.0615
     11 C           3.7320   -3.0000    0.0000 C.ar    1  UNL1       -0.0615
     12 C           2.8660   -3.5000    0.0000 C.ar    1  UNL1       -0.0617
     13 C           5.4641    3.0000    0.0000 C.1     1  UNL1        0.0358
     14 H           3.9441   -0.5826    0.0000 H       1  UNL1        0.0269
     15 H           4.3426    0.1077    0.0000 H       1  UNL1        0.0269
     16 H           2.6540    0.0826    0.0000 H       1  UNL1        0.0313
     17 H           2.2554   -0.6077    0.0000 H       1  UNL1        0.0313
     18 H           3.5200    1.5826    0.0000 H       1  UNL1        0.0283
     19 H           3.1215    0.8923    0.0000 H       1  UNL1        0.0283
     20 H           4.8101    0.9174    0.0000 H       1  UNL1        0.0516
     21 H           5.2087    1.6077    0.0000 H       1  UNL1        0.0516
     22 H           1.4631   -1.6900    0.0000 H       1  UNL1        0.0620
     23 H           4.2690   -1.6900    0.0000 H       1  UNL1        0.0620
     24 H           1.4631   -3.3100    0.0000 H       1  UNL1        0.0618
     25 H           4.2690   -3.3100    0.0000 H       1  UNL1        0.0618
     26 H           2.8660   -4.1200    0.0000 H       1  UNL1        0.0618
@<TRIPOS>BOND
     1     1    13    2
     2     2     7    1
     3     2    13    2
     4     3     4    1
     5     3     5    1
     6     3    14    1
     7     3    15    1
     8     4     6    1
     9     4    16    1
    10     4    17    1
    11     5     7    1
    12     5    18    1
    13     5    19    1
    14     6     8   ar
    15     6     9   ar
    16     7    20    1
    17     7    21    1
    18     8    10   ar
    19     8    22    1
    20     9    11   ar
    21     9    23    1
    22    10    12   ar
    23    10    24    1
    24    11    12   ar
    25    11    25    1
    26    12    26    1
