@<TRIPOS>MOLECULE
IMPHY000172
 73 77 0 0 0
SMALL
GASTEIGER

@<TRIPOS>ATOM
      1 O           2.5357   -3.0775    0.0000 O.3     1  UNL1       -0.3915
      2 O          12.8655    2.5166    0.0000 O.3     1  UNL1       -0.3870
      3 N          10.4749    2.3869    0.0000 N.2     1  UNL1       -0.2894
      4 C           7.9288   -0.0251    0.0000 C.3     1  UNL1       -0.0255
      5 C           7.9288   -1.0251    0.0000 C.3     1  UNL1       -0.0320
      6 C           7.0628   -1.5251    0.0000 C.3     1  UNL1       -0.0307
      7 C           6.1968   -1.0251    0.0000 C.3     1  UNL1       -0.0285
      8 C           8.8750    0.2796    0.0000 C.3     1  UNL1       -0.0277
      9 C           7.0628    0.4749    0.0000 C.3     1  UNL1       -0.0468
     10 C           5.2868   -1.5320    0.0000 C.3     1  UNL1       -0.0078
     11 C           8.8750   -1.3299    0.0000 C.3     1  UNL1       -0.0492
     12 C           6.1968   -0.0251    0.0000 C.3     1  UNL1       -0.0486
     13 C           9.4586   -0.5251    0.0000 C.3     1  UNL1       -0.0489
     14 C           7.0789   -2.5666    0.0000 C.3     1  UNL1       -0.0311
     15 C           7.9288    0.9749    0.0000 C.3     1  UNL1       -0.0590
     16 C           9.1857    1.2301    0.0000 C.3     1  UNL1       -0.0024
     17 C           5.2787   -2.5736    0.0000 C.2     1  UNL1       -0.0648
     18 C           4.3599   -0.9679    0.0000 C.3     1  UNL1       -0.0413
     19 C           6.1808   -3.0944    0.0000 C.2     1  UNL1       -0.0839
     20 C           5.2945   -0.5320    0.0000 C.3     1  UNL1       -0.0556
     21 C           4.3433   -3.1233    0.0000 C.3     1  UNL1       -0.0051
     22 C           3.4120   -1.4958    0.0000 C.3     1  UNL1       -0.0258
     23 C           3.4037   -2.5808    0.0000 C.3     1  UNL1        0.0590
     24 C          10.1642    1.4363    0.0000 C.2     1  UNL1        0.0168
     25 C           8.5179    1.9744    0.0000 C.3     1  UNL1       -0.0570
     26 C          10.8321    0.6920    0.0000 C.3     1  UNL1       -0.0118
     27 C          11.8106    0.8983    0.0000 C.3     1  UNL1       -0.0174
     28 C          12.1212    1.8488    0.0000 C.3     1  UNL1        0.0829
     29 C          11.4534    2.5931    0.0000 C.3     1  UNL1        0.0681
     30 C          13.0717    1.5381    0.0000 C.3     1  UNL1       -0.0343
     31 H           8.0188   -1.8704    0.0000 H       1  UNL1        0.0309
     32 H           7.8022   -1.9444    0.0000 H       1  UNL1        0.0309
     33 H           6.9329   -0.6001    0.0000 H       1  UNL1        0.0312
     34 H           9.7148    0.4115    0.0000 H       1  UNL1        0.0312
     35 H           7.4613    0.9498    0.0000 H       1  UNL1        0.0271
     36 H           6.6643    0.9498    0.0000 H       1  UNL1        0.0271
     37 H           8.6240   -1.8968    0.0000 H       1  UNL1        0.0268
     38 H           9.4124   -1.6391    0.0000 H       1  UNL1        0.0268
     39 H           5.9847    0.5575    0.0000 H       1  UNL1        0.0268
     40 H           5.5862   -0.1328    0.0000 H       1  UNL1        0.0268
     41 H           9.9195   -0.9399    0.0000 H       1  UNL1        0.0268
     42 H           9.9195   -0.1104    0.0000 H       1  UNL1        0.0268
     43 H           7.2969   -3.1470    0.0000 H       1  UNL1        0.0310
     44 H           7.6880   -2.4511    0.0000 H       1  UNL1        0.0310
     45 H           8.5488    0.9749    0.0000 H       1  UNL1        0.0235
     46 H           7.9288    1.5949    0.0000 H       1  UNL1        0.0235
     47 H           7.3088    0.9749    0.0000 H       1  UNL1        0.0235
     48 H           9.3783    1.8194    0.0000 H       1  UNL1        0.0361
     49 H           4.7681   -0.5012    0.0000 H       1  UNL1        0.0274
     50 H           3.9700   -0.4859    0.0000 H       1  UNL1        0.0274
     51 H           6.1832   -3.7144    0.0000 H       1  UNL1        0.0572
     52 H           5.9145   -0.5368    0.0000 H       1  UNL1        0.0238
     53 H           5.2993    0.0880    0.0000 H       1  UNL1        0.0238
     54 H           4.6745   -0.5272    0.0000 H       1  UNL1        0.0238
     55 H           3.9460   -3.5993    0.0000 H       1  UNL1        0.0335
     56 H           4.7443   -3.5962    0.0000 H       1  UNL1        0.0335
     57 H           3.2075   -0.9106    0.0000 H       1  UNL1        0.0290
     58 H           2.8004   -1.5972    0.0000 H       1  UNL1        0.0290
     59 H           3.4025   -3.2008    0.0000 H       1  UNL1        0.0596
     60 H           8.9793    2.3885    0.0000 H       1  UNL1        0.0236
     61 H           8.1038    2.4359    0.0000 H       1  UNL1        0.0236
     62 H           8.0564    1.5604    0.0000 H       1  UNL1        0.0236
     63 H          10.3057    0.3644    0.0000 H       1  UNL1        0.0326
     64 H          11.0633    0.1168    0.0000 H       1  UNL1        0.0326
     65 H          11.8311    0.2786    0.0000 H       1  UNL1        0.0297
     66 H          12.4244    0.8109    0.0000 H       1  UNL1        0.0297
     67 H           2.0000   -2.7654    0.0000 H       1  UNL1        0.2098
     68 H          11.9797    2.9207    0.0000 H       1  UNL1        0.0536
     69 H          11.2221    3.1683    0.0000 H       1  UNL1        0.0536
     70 H          12.8791    0.9488    0.0000 H       1  UNL1        0.0258
     71 H          13.6611    1.3455    0.0000 H       1  UNL1        0.0258
     72 H          13.2644    2.1274    0.0000 H       1  UNL1        0.0258
     73 H          12.7377    3.1233    0.0000 H       1  UNL1        0.2102
@<TRIPOS>BOND
     1    23     1    1
     2     1    67    1
     3    28     2    1
     4     2    73    1
     5     3    24    2
     6     3    29    1
     7     4     5    1
     8     4     8    1
     9     4     9    1
    10     4    15    1
    11     5     6    1
    12     5    11    1
    13     5    31    1
    14     6     7    1
    15     6    14    1
    16     6    32    1
    17     7    10    1
    18     7    12    1
    19     7    33    1
    20     8    13    1
    21     8    16    1
    22     8    34    1
    23     9    12    1
    24     9    35    1
    25     9    36    1
    26    10    17    1
    27    10    18    1
    28    10    20    1
    29    11    13    1
    30    11    37    1
    31    11    38    1
    32    12    39    1
    33    12    40    1
    34    13    41    1
    35    13    42    1
    36    14    19    1
    37    14    43    1
    38    14    44    1
    39    15    45    1
    40    15    46    1
    41    15    47    1
    42    16    24    1
    43    16    25    1
    44    16    48    1
    45    17    19    2
    46    17    21    1
    47    18    22    1
    48    18    49    1
    49    18    50    1
    50    19    51    1
    51    20    52    1
    52    20    53    1
    53    20    54    1
    54    21    23    1
    55    21    55    1
    56    21    56    1
    57    22    23    1
    58    22    57    1
    59    22    58    1
    60    23    59    1
    61    24    26    1
    62    25    60    1
    63    25    61    1
    64    25    62    1
    65    26    27    1
    66    26    63    1
    67    26    64    1
    68    27    28    1
    69    27    65    1
    70    27    66    1
    71    28    29    1
    72    28    30    1
    73    29    68    1
    74    29    69    1
    75    30    70    1
    76    30    71    1
    77    30    72    1
