@<TRIPOS>MOLECULE
IMPHY017458
 51 50 0 0 0
SMALL
GASTEIGER

@<TRIPOS>ATOM
      1 S           2.5369   -0.5000    0.0000 S.3     1  UNL1       -0.1720
      2 C           6.8671   -0.0000    0.0000 C.3     1  UNL1       -0.0531
      3 C           6.0010    0.5000    0.0000 C.3     1  UNL1       -0.0530
      4 C           7.7331    0.5000    0.0000 C.3     1  UNL1       -0.0531
      5 C           5.1350    0.0000    0.0000 C.3     1  UNL1       -0.0518
      6 C           8.5991   -0.0000    0.0000 C.3     1  UNL1       -0.0531
      7 C           4.2690    0.5000    0.0000 C.3     1  UNL1       -0.0390
      8 C           9.4651    0.5000    0.0000 C.3     1  UNL1       -0.0531
      9 C           3.4030    0.0000    0.0000 C.3     1  UNL1        0.0081
     10 C          10.3312   -0.0000    0.0000 C.3     1  UNL1       -0.0531
     11 C          11.1972    0.5000    0.0000 C.3     1  UNL1       -0.0531
     12 C          12.0632   -0.0000    0.0000 C.3     1  UNL1       -0.0531
     13 C          12.9292    0.5000    0.0000 C.3     1  UNL1       -0.0533
     14 C           2.9030    0.8660    0.0000 C.3     1  UNL1       -0.0509
     15 C           3.9030   -0.8660    0.0000 C.3     1  UNL1       -0.0509
     16 C          13.7953   -0.0000    0.0000 C.3     1  UNL1       -0.0559
     17 C          14.6613    0.5000    0.0000 C.3     1  UNL1       -0.0653
     18 H           6.4685   -0.4749    0.0000 H       1  UNL1        0.0265
     19 H           7.2656   -0.4749    0.0000 H       1  UNL1        0.0265
     20 H           6.3996    0.9749    0.0000 H       1  UNL1        0.0265
     21 H           5.6025    0.9749    0.0000 H       1  UNL1        0.0265
     22 H           8.1316    0.9749    0.0000 H       1  UNL1        0.0265
     23 H           7.3346    0.9749    0.0000 H       1  UNL1        0.0265
     24 H           4.7365   -0.4749    0.0000 H       1  UNL1        0.0266
     25 H           5.5335   -0.4749    0.0000 H       1  UNL1        0.0266
     26 H           8.2006   -0.4749    0.0000 H       1  UNL1        0.0265
     27 H           8.9976   -0.4749    0.0000 H       1  UNL1        0.0265
     28 H           4.6675    0.9749    0.0000 H       1  UNL1        0.0278
     29 H           3.8705    0.9749    0.0000 H       1  UNL1        0.0278
     30 H           9.8637    0.9749    0.0000 H       1  UNL1        0.0265
     31 H           9.0666    0.9749    0.0000 H       1  UNL1        0.0265
     32 H           9.9326   -0.4749    0.0000 H       1  UNL1        0.0265
     33 H          10.7297   -0.4749    0.0000 H       1  UNL1        0.0265
     34 H          11.5957    0.9749    0.0000 H       1  UNL1        0.0265
     35 H          10.7987    0.9749    0.0000 H       1  UNL1        0.0265
     36 H          11.6647   -0.4749    0.0000 H       1  UNL1        0.0265
     37 H          12.4617   -0.4749    0.0000 H       1  UNL1        0.0265
     38 H          13.3278    0.9749    0.0000 H       1  UNL1        0.0265
     39 H          12.5307    0.9749    0.0000 H       1  UNL1        0.0265
     40 H           3.4399    1.1760    0.0000 H       1  UNL1        0.0243
     41 H           2.5930    1.4030    0.0000 H       1  UNL1        0.0243
     42 H           2.3660    0.5560    0.0000 H       1  UNL1        0.0243
     43 H           3.3660   -1.1760    0.0000 H       1  UNL1        0.0243
     44 H           4.2130   -1.4030    0.0000 H       1  UNL1        0.0243
     45 H           4.4399   -0.5560    0.0000 H       1  UNL1        0.0243
     46 H          13.3967   -0.4749    0.0000 H       1  UNL1        0.0263
     47 H          14.1938   -0.4749    0.0000 H       1  UNL1        0.0263
     48 H           2.0000   -0.1900    0.0000 H       1  UNL1        0.1022
     49 H          14.9713   -0.0369    0.0000 H       1  UNL1        0.0230
     50 H          15.1982    0.8100    0.0000 H       1  UNL1        0.0230
     51 H          14.3513    1.0369    0.0000 H       1  UNL1        0.0230
@<TRIPOS>BOND
     1     1     9    1
     2     1    48    1
     3     2     3    1
     4     2     4    1
     5     2    18    1
     6     2    19    1
     7     3     5    1
     8     3    20    1
     9     3    21    1
    10     4     6    1
    11     4    22    1
    12     4    23    1
    13     5     7    1
    14     5    24    1
    15     5    25    1
    16     6     8    1
    17     6    26    1
    18     6    27    1
    19     7     9    1
    20     7    28    1
    21     7    29    1
    22     8    10    1
    23     8    30    1
    24     8    31    1
    25     9    14    1
    26     9    15    1
    27    10    11    1
    28    10    32    1
    29    10    33    1
    30    11    12    1
    31    11    34    1
    32    11    35    1
    33    12    13    1
    34    12    36    1
    35    12    37    1
    36    13    16    1
    37    13    38    1
    38    13    39    1
    39    14    40    1
    40    14    41    1
    41    14    42    1
    42    15    43    1
    43    15    44    1
    44    15    45    1
    45    16    17    1
    46    16    46    1
    47    16    47    1
    48    17    49    1
    49    17    50    1
    50    17    51    1
