@<TRIPOS>MOLECULE
IMPHY012944
 55 58 0 0 0
SMALL
GASTEIGER

@<TRIPOS>ATOM
      1 O           5.1350   -1.2485    0.0000 O.3     1  UNL1       -0.3313
      2 O           6.8671   -1.2485    0.0000 O.3     1  UNL1       -0.4570
      3 O           5.1350   -4.2485    0.0000 O.3     1  UNL1       -0.3864
      4 O           3.4030   -3.2485    0.0000 O.3     1  UNL1       -0.3865
      5 O           6.8671   -3.2485    0.0000 O.3     1  UNL1       -0.3829
      6 O           2.5369   -1.7485    0.0000 O.3     1  UNL1       -0.3924
      7 O           8.4701    1.9186    0.0000 O.3     1  UNL1       -0.4476
      8 O           8.5991   -0.2485    0.0000 O.3     1  UNL1       -0.4885
      9 O           6.4084    3.4677    0.0000 O.2     1  UNL1       -0.2832
     10 O          11.5650    1.9604    0.0000 O.3     1  UNL1       -0.5033
     11 O          12.5650    3.6924    0.0000 O.3     1  UNL1       -0.5033
     12 C           5.1350   -3.2485    0.0000 C.3     1  UNL1        0.1152
     13 C           4.2690   -2.7485    0.0000 C.3     1  UNL1        0.1120
     14 C           6.0010   -2.7485    0.0000 C.3     1  UNL1        0.1454
     15 C           4.2690   -1.7485    0.0000 C.3     1  UNL1        0.1140
     16 C           6.0010   -1.7485    0.0000 C.3     1  UNL1        0.2310
     17 C           3.4030   -1.2485    0.0000 C.3     1  UNL1        0.0731
     18 C           6.8671   -0.2485    0.0000 C.ar    1  UNL1        0.1691
     19 C           7.7331    0.2515    0.0000 C.ar    1  UNL1        0.2050
     20 C           6.0010    0.2515    0.0000 C.ar    1  UNL1       -0.0153
     21 C           7.7331    1.2515    0.0000 C.ar    1  UNL1        0.1845
     22 C           6.8671    1.7515    0.0000 C.ar    1  UNL1        0.0715
     23 C           6.0010    1.2515    0.0000 C.ar    1  UNL1       -0.0436
     24 C           7.0763    2.7234    0.0000 C.2     1  UNL1        0.2316
     25 C           8.0650    2.8264    0.0000 C.2     1  UNL1        0.1763
     26 C           8.5650    3.6924    0.0000 C.2     1  UNL1       -0.0082
     27 C           8.5991   -1.2485    0.0000 C.3     1  UNL1        0.0791
     28 C           9.5650    3.6924    0.0000 C.ar    1  UNL1       -0.0178
     29 C          10.0650    2.8264    0.0000 C.ar    1  UNL1       -0.0093
     30 C          10.0650    4.5585    0.0000 C.ar    1  UNL1       -0.0508
     31 C          11.0650    2.8264    0.0000 C.ar    1  UNL1        0.1588
     32 C          11.0650    4.5585    0.0000 C.ar    1  UNL1       -0.0160
     33 C          11.5650    3.6924    0.0000 C.ar    1  UNL1        0.1582
     34 H           4.5981   -3.5585    0.0000 H       1  UNL1        0.0648
     35 H           4.2690   -3.3685    0.0000 H       1  UNL1        0.0647
     36 H           6.0010   -3.3685    0.0000 H       1  UNL1        0.0683
     37 H           4.2690   -1.1285    0.0000 H       1  UNL1        0.0647
     38 H           6.0010   -1.1285    0.0000 H       1  UNL1        0.1084
     39 H           3.8015   -0.7735    0.0000 H       1  UNL1        0.0584
     40 H           3.0044   -0.7735    0.0000 H       1  UNL1        0.0584
     41 H           4.5981   -4.5585    0.0000 H       1  UNL1        0.2100
     42 H           3.4030   -3.8685    0.0000 H       1  UNL1        0.2100
     43 H           6.8671   -3.8685    0.0000 H       1  UNL1        0.2102
     44 H           2.0000   -1.4385    0.0000 H       1  UNL1        0.2095
     45 H           5.4641   -0.0585    0.0000 H       1  UNL1        0.0655
     46 H           5.4641    1.5615    0.0000 H       1  UNL1        0.0627
     47 H           8.2550    4.2294    0.0000 H       1  UNL1        0.0661
     48 H           7.9791   -1.2485    0.0000 H       1  UNL1        0.0660
     49 H           8.5991   -1.8685    0.0000 H       1  UNL1        0.0660
     50 H           9.2191   -1.2485    0.0000 H       1  UNL1        0.0660
     51 H           9.7550    2.2895    0.0000 H       1  UNL1        0.0661
     52 H           9.7550    5.0954    0.0000 H       1  UNL1        0.0625
     53 H          11.3750    5.0954    0.0000 H       1  UNL1        0.0655
     54 H          12.1850    1.9604    0.0000 H       1  UNL1        0.2923
     55 H          12.8750    4.2294    0.0000 H       1  UNL1        0.2923
@<TRIPOS>BOND
     1     1    15    1
     2     1    16    1
     3    16     2    1
     4     2    18    1
     5    12     3    1
     6     3    41    1
     7    13     4    1
     8     4    42    1
     9    14     5    1
    10     5    43    1
    11     6    17    1
    12     6    44    1
    13     7    21    1
    14     7    25    1
    15     8    19    1
    16     8    27    1
    17     9    24    2
    18    10    31    1
    19    10    54    1
    20    11    33    1
    21    11    55    1
    22    12    13    1
    23    12    14    1
    24    12    34    1
    25    13    15    1
    26    13    35    1
    27    14    16    1
    28    14    36    1
    29    15    17    1
    30    15    37    1
    31    16    38    1
    32    17    39    1
    33    17    40    1
    34    18    19   ar
    35    18    20   ar
    36    19    21   ar
    37    20    23   ar
    38    20    45    1
    39    21    22   ar
    40    22    23   ar
    41    22    24    1
    42    23    46    1
    43    24    25    1
    44    25    26    2
    45    26    28    1
    46    26    47    1
    47    27    48    1
    48    27    49    1
    49    27    50    1
    50    28    29   ar
    51    28    30   ar
    52    29    31   ar
    53    29    51    1
    54    30    32   ar
    55    30    52    1
    56    31    33   ar
    57    32    33   ar
    58    32    53    1
