@<TRIPOS>MOLECULE
IMPHY015792
 47 50 0 0 0
SMALL
GASTEIGER

@<TRIPOS>ATOM
      1 O           6.1621   -1.1523    0.0000 O.3     1  UNL1       -0.4830
      2 O           8.3061    0.9162    0.0000 O.3     1  UNL1       -0.4904
      3 O           2.6726   -0.2480    0.0000 O.3     1  UNL1       -0.4950
      4 O          10.9457   -1.4279    0.0000 O.3     1  UNL1       -0.5064
      5 C           6.6589    0.3810    0.0000 C.3     1  UNL1        0.0629
      6 C           6.9679   -0.5701    0.0000 C.3     1  UNL1        0.1385
      7 C           5.6648    0.3784    0.0000 C.ar    1  UNL1        0.0047
      8 C           7.3280    1.1242    0.0000 C.3     1  UNL1        0.1002
      9 C           7.9460   -0.7780    0.0000 C.ar    1  UNL1        0.0355
     10 C           5.3584   -0.5673    0.0000 C.ar    1  UNL1        0.1286
     11 C           8.6152   -0.0348    0.0000 C.ar    1  UNL1        0.1341
     12 C           9.6372   -0.2357    0.0000 C.ar    1  UNL1        0.0397
     13 C           4.9832    1.1579    0.0000 C.ar    1  UNL1       -0.0511
     14 C           8.2526   -1.7735    0.0000 C.ar    1  UNL1       -0.0481
     15 C           4.3492   -0.7990    0.0000 C.ar    1  UNL1        0.0221
     16 C           9.9668   -1.2238    0.0000 C.ar    1  UNL1        0.1238
     17 C           9.2698   -1.9979    0.0000 C.ar    1  UNL1       -0.0193
     18 C          10.2977    0.5152    0.0000 C.3     1  UNL1       -0.0023
     19 C           3.9689    0.9496    0.0000 C.ar    1  UNL1       -0.0195
     20 C           3.6498   -0.0355    0.0000 C.ar    1  UNL1        0.1236
     21 C          11.2782    0.3186    0.0000 C.2     1  UNL1       -0.0807
     22 C          11.9387    1.0694    0.0000 C.2     1  UNL1       -0.0793
     23 C           2.0000    0.4920    0.0000 C.3     1  UNL1        0.0788
     24 C          12.9192    0.8728    0.0000 C.3     1  UNL1       -0.0440
     25 C          11.6187    2.0168    0.0000 C.3     1  UNL1       -0.0440
     26 H           6.3121    1.1571    0.0000 H       1  UNL1        0.0423
     27 H           7.1435   -1.4017    0.0000 H       1  UNL1        0.0793
     28 H           7.5602    1.6990    0.0000 H       1  UNL1        0.0704
     29 H           6.8022    1.4527    0.0000 H       1  UNL1        0.0704
     30 H           5.1811    1.7455    0.0000 H       1  UNL1        0.0623
     31 H           7.8324   -2.2294    0.0000 H       1  UNL1        0.0624
     32 H           4.1650   -1.3910    0.0000 H       1  UNL1        0.0691
     33 H           9.4591   -2.5883    0.0000 H       1  UNL1        0.0654
     34 H          10.5233    1.0927    0.0000 H       1  UNL1        0.0358
     35 H           9.7682    0.8376    0.0000 H       1  UNL1        0.0358
     36 H           3.5554    1.4116    0.0000 H       1  UNL1        0.0654
     37 H          11.4766   -0.2688    0.0000 H       1  UNL1        0.0575
     38 H          11.1396   -2.0168    0.0000 H       1  UNL1        0.2921
     39 H           2.4588    0.9090    0.0000 H       1  UNL1        0.0660
     40 H           1.5830    0.9508    0.0000 H       1  UNL1        0.0660
     41 H           1.5412    0.0749    0.0000 H       1  UNL1        0.0660
     42 H          12.7973    0.2649    0.0000 H       1  UNL1        0.0274
     43 H          13.5271    0.7510    0.0000 H       1  UNL1        0.0274
     44 H          13.0411    1.4807    0.0000 H       1  UNL1        0.0274
     45 H          12.2061    2.2152    0.0000 H       1  UNL1        0.0274
     46 H          11.4203    2.6042    0.0000 H       1  UNL1        0.0274
     47 H          11.0313    1.8184    0.0000 H       1  UNL1        0.0274
@<TRIPOS>BOND
     1     1     6    1
     2     1    10    1
     3     2     8    1
     4     2    11    1
     5     3    20    1
     6     3    23    1
     7     4    16    1
     8     4    38    1
     9     5     6    1
    10     5     7    1
    11     5     8    1
    12     5    26    1
    13     6     9    1
    14     6    27    1
    15     7    10   ar
    16     7    13   ar
    17     8    28    1
    18     8    29    1
    19     9    11   ar
    20     9    14   ar
    21    10    15   ar
    22    11    12   ar
    23    12    16   ar
    24    12    18    1
    25    13    19   ar
    26    13    30    1
    27    14    17   ar
    28    14    31    1
    29    15    20   ar
    30    15    32    1
    31    16    17   ar
    32    17    33    1
    33    18    21    1
    34    18    34    1
    35    18    35    1
    36    19    20   ar
    37    19    36    1
    38    21    22    2
    39    21    37    1
    40    22    24    1
    41    22    25    1
    42    23    39    1
    43    23    40    1
    44    23    41    1
    45    24    42    1
    46    24    43    1
    47    24    44    1
    48    25    45    1
    49    25    46    1
    50    25    47    1
