@<TRIPOS>MOLECULE
IMPHY011476
 20 20 0 0 0
SMALL
GASTEIGER

@<TRIPOS>ATOM
      1 O           2.8660    1.0000    0.0000 O.2     1  UNL1       -0.4910
      2 O           6.3301    1.0000    0.0000 O.2     1  UNL1       -0.4910
      3 O           4.5981    2.0000    0.0000 O.2     1  UNL1       -0.2801
      4 O           4.5981   -2.0000    0.0000 O.2     1  UNL1       -0.2877
      5 C           3.7320    0.5000    0.0000 C.2     1  UNL1        0.1739
      6 C           5.4641    0.5000    0.0000 C.2     1  UNL1        0.1739
      7 C           4.5981    1.0000    0.0000 C.2     1  UNL1        0.2616
      8 C           3.7320   -0.5000    0.0000 C.2     1  UNL1        0.0308
      9 C           5.4641   -0.5000    0.0000 C.2     1  UNL1        0.0308
     10 C           4.5981   -1.0000    0.0000 C.2     1  UNL1        0.1862
     11 C           2.0000    0.5000    0.0000 C.3     1  UNL1        0.0790
     12 C           7.1962    0.5000    0.0000 C.3     1  UNL1        0.0790
     13 H           3.1951   -0.8100    0.0000 H       1  UNL1        0.0694
     14 H           6.0010   -0.8100    0.0000 H       1  UNL1        0.0694
     15 H           1.6900    1.0369    0.0000 H       1  UNL1        0.0660
     16 H           1.4631    0.1900    0.0000 H       1  UNL1        0.0660
     17 H           2.3100   -0.0369    0.0000 H       1  UNL1        0.0660
     18 H           6.8862   -0.0369    0.0000 H       1  UNL1        0.0660
     19 H           7.7331    0.1900    0.0000 H       1  UNL1        0.0660
     20 H           7.5062    1.0369    0.0000 H       1  UNL1        0.0660
@<TRIPOS>BOND
     1     1     5    1
     2     1    11    1
     3     2     6    1
     4     2    12    1
     5     3     7    2
     6     4    10    2
     7     5     7    1
     8     5     8    2
     9     6     7    1
    10     6     9    2
    11     8    10    1
    12     8    13    1
    13     9    10    1
    14     9    14    1
    15    11    15    1
    16    11    16    1
    17    11    17    1
    18    12    18    1
    19    12    19    1
    20    12    20    1
