@<TRIPOS>MOLECULE
IMPHY004005
 69 71 0 0 0
SMALL
GASTEIGER

@<TRIPOS>ATOM
      1 O           4.5981    2.3100    0.0000 O.3     1  UNL1       -0.4572
      2 O           7.8479    2.2280    0.0000 O.3     1  UNL1       -0.3945
      3 O           2.8660    2.3100    0.0000 O.2     1  UNL1       -0.2450
      4 O           2.0000   -5.1900    0.0000 O.3     1  UNL1       -0.3910
      5 C           5.4641   -0.1900    0.0000 C.3     1  UNL1       -0.0188
      6 C           5.4641    0.8100    0.0000 C.3     1  UNL1        0.0099
      7 C           6.3580    1.3447    0.0000 C.3     1  UNL1       -0.0022
      8 C           4.5981   -0.6900    0.0000 C.3     1  UNL1       -0.0140
      9 C           6.3580   -0.7247    0.0000 C.3     1  UNL1       -0.0467
     10 C           4.5981    1.3100    0.0000 C.3     1  UNL1        0.1109
     11 C           7.2641    0.8308    0.0000 C.3     1  UNL1       -0.0451
     12 C           7.2641   -0.2108    0.0000 C.3     1  UNL1       -0.0520
     13 C           3.7320    0.8100    0.0000 C.3     1  UNL1        0.0059
     14 C           5.4641   -1.1900    0.0000 C.3     1  UNL1       -0.0586
     15 C           3.7320   -0.1900    0.0000 C.2     1  UNL1       -0.0695
     16 C           6.8480    2.2164    0.0000 C.3     1  UNL1        0.0500
     17 C           4.5981   -1.6900    0.0000 C.3     1  UNL1       -0.0423
     18 C           5.8481    2.2048    0.0000 C.3     1  UNL1       -0.0571
     19 C           3.7320   -2.1900    0.0000 C.3     1  UNL1       -0.0314
     20 C           2.8660   -0.6900    0.0000 C.2     1  UNL1       -0.0990
     21 C           3.7320    2.8100    0.0000 C.2     1  UNL1        0.3395
     22 C           3.7320   -3.1900    0.0000 C.2     1  UNL1       -0.0744
     23 C           4.5981   -3.6900    0.0000 C.3     1  UNL1       -0.0437
     24 C           3.7320    3.8100    0.0000 C.ar    1  UNL1        0.0590
     25 C           2.8660   -3.6900    0.0000 C.2     1  UNL1       -0.0600
     26 C           2.8660   -4.6900    0.0000 C.3     1  UNL1        0.0626
     27 C           4.5981    4.3100    0.0000 C.ar    1  UNL1       -0.0478
     28 C           2.8660    4.3100    0.0000 C.ar    1  UNL1       -0.0478
     29 C           4.5981    5.3100    0.0000 C.ar    1  UNL1       -0.0610
     30 C           2.8660    5.3100    0.0000 C.ar    1  UNL1       -0.0610
     31 C           3.7320    5.8100    0.0000 C.ar    1  UNL1       -0.0617
     32 H           5.4576    1.6600    0.0000 H       1  UNL1        0.0348
     33 H           4.0611   -1.0000    0.0000 H       1  UNL1        0.0351
     34 H           5.9534   -1.1944    0.0000 H       1  UNL1        0.0271
     35 H           6.7517   -1.2037    0.0000 H       1  UNL1        0.0271
     36 H           4.0611    1.6200    0.0000 H       1  UNL1        0.0740
     37 H           7.8750    0.7247    0.0000 H       1  UNL1        0.0271
     38 H           7.4732    1.4145    0.0000 H       1  UNL1        0.0271
     39 H           7.4732   -0.7945    0.0000 H       1  UNL1        0.0266
     40 H           7.8750   -0.1047    0.0000 H       1  UNL1        0.0266
     41 H           3.5200    1.3926    0.0000 H       1  UNL1        0.0346
     42 H           3.1215    0.7023    0.0000 H       1  UNL1        0.0346
     43 H           4.8441   -1.1900    0.0000 H       1  UNL1        0.0235
     44 H           5.4641   -1.8100    0.0000 H       1  UNL1        0.0235
     45 H           6.0841   -1.1900    0.0000 H       1  UNL1        0.0235
     46 H           6.9486    2.8282    0.0000 H       1  UNL1        0.0563
     47 H           6.2630    2.4217    0.0000 H       1  UNL1        0.0563
     48 H           4.8101   -2.2726    0.0000 H       1  UNL1        0.0274
     49 H           5.2087   -1.5823    0.0000 H       1  UNL1        0.0274
     50 H           6.3814    2.5210    0.0000 H       1  UNL1        0.0236
     51 H           5.5319    2.7382    0.0000 H       1  UNL1        0.0236
     52 H           5.3148    1.8887    0.0000 H       1  UNL1        0.0236
     53 H           3.5200   -1.6074    0.0000 H       1  UNL1        0.0310
     54 H           3.1215   -2.2977    0.0000 H       1  UNL1        0.0310
     55 H           2.3291   -0.3800    0.0000 H       1  UNL1        0.0535
     56 H           2.8660   -1.3100    0.0000 H       1  UNL1        0.0535
     57 H           8.1517    2.7685    0.0000 H       1  UNL1        0.2094
     58 H           4.2881   -4.2269    0.0000 H       1  UNL1        0.0274
     59 H           5.1350   -4.0000    0.0000 H       1  UNL1        0.0274
     60 H           4.9081   -3.1531    0.0000 H       1  UNL1        0.0274
     61 H           2.3291   -3.3800    0.0000 H       1  UNL1        0.0594
     62 H           3.0781   -5.2726    0.0000 H       1  UNL1        0.0601
     63 H           3.4766   -4.5823    0.0000 H       1  UNL1        0.0601
     64 H           5.1350    4.0000    0.0000 H       1  UNL1        0.0626
     65 H           2.3291    4.0000    0.0000 H       1  UNL1        0.0626
     66 H           5.1350    5.6200    0.0000 H       1  UNL1        0.0618
     67 H           2.3291    5.6200    0.0000 H       1  UNL1        0.0618
     68 H           3.7320    6.4300    0.0000 H       1  UNL1        0.0618
     69 H           2.0000   -5.8100    0.0000 H       1  UNL1        0.2098
@<TRIPOS>BOND
     1    10     1    1
     2     1    21    1
     3     2    16    1
     4     2    57    1
     5     3    21    2
     6     4    26    1
     7     4    69    1
     8     5     6    1
     9     5     8    1
    10     5     9    1
    11     5    14    1
    12     6     7    1
    13     6    10    1
    14     6    32    1
    15     7    11    1
    16     7    16    1
    17     7    18    1
    18     8    15    1
    19     8    17    1
    20     8    33    1
    21     9    12    1
    22     9    34    1
    23     9    35    1
    24    10    13    1
    25    10    36    1
    26    11    12    1
    27    11    37    1
    28    11    38    1
    29    12    39    1
    30    12    40    1
    31    13    15    1
    32    13    41    1
    33    13    42    1
    34    14    43    1
    35    14    44    1
    36    14    45    1
    37    15    20    2
    38    16    46    1
    39    16    47    1
    40    17    19    1
    41    17    48    1
    42    17    49    1
    43    18    50    1
    44    18    51    1
    45    18    52    1
    46    19    22    1
    47    19    53    1
    48    19    54    1
    49    20    55    1
    50    20    56    1
    51    21    24    1
    52    22    23    1
    53    22    25    2
    54    23    58    1
    55    23    59    1
    56    23    60    1
    57    24    27   ar
    58    24    28   ar
    59    25    26    1
    60    25    61    1
    61    26    62    1
    62    26    63    1
    63    27    29   ar
    64    27    64    1
    65    28    30   ar
    66    28    65    1
    67    29    31   ar
    68    29    66    1
    69    30    31   ar
    70    30    67    1
    71    31    68    1
