@<TRIPOS>MOLECULE
IMPHY011356
 40 41 0 0 0
SMALL
GASTEIGER

@<TRIPOS>ATOM
      1 O           9.9490   -0.5368    0.0000 O.3     1  UNL1       -0.3907
      2 C           5.4490    0.3292    0.0000 C.3     1  UNL1       -0.0222
      3 C           4.3089    1.2863    0.0000 C.3     1  UNL1       -0.0311
      4 C           4.0501    0.3204    0.0000 C.3     1  UNL1       -0.0142
      5 C           3.5723    2.2689    0.0000 C.3     1  UNL1       -0.0424
      6 C           2.2756    0.9752    0.0000 C.3     1  UNL1       -0.0311
      7 C           5.9490   -0.5368    0.0000 C.3     1  UNL1       -0.0434
      8 C           2.8290   -0.5453    0.0000 C.2     1  UNL1       -0.0729
      9 C           6.3150    0.8292    0.0000 C.3     1  UNL1       -0.0587
     10 C           2.0000    0.0139    0.0000 C.2     1  UNL1       -0.0845
     11 C           6.9490   -0.5368    0.0000 C.3     1  UNL1       -0.0339
     12 C           2.8639   -1.5447    0.0000 C.3     1  UNL1       -0.0435
     13 C           7.4490   -1.4029    0.0000 C.2     1  UNL1       -0.0829
     14 C           8.4490   -1.4029    0.0000 C.2     1  UNL1       -0.0515
     15 C           8.9490   -0.5368    0.0000 C.3     1  UNL1        0.0650
     16 C           8.9490   -2.2689    0.0000 C.3     1  UNL1       -0.0416
     17 H           4.7592    1.7124    0.0000 H       1  UNL1        0.0309
     18 H           4.2401   -0.2698    0.0000 H       1  UNL1        0.0351
     19 H           3.8901    2.8012    0.0000 H       1  UNL1        0.0274
     20 H           2.9591    2.3608    0.0000 H       1  UNL1        0.0274
     21 H           2.2706    1.5951    0.0000 H       1  UNL1        0.0310
     22 H           1.6613    1.0589    0.0000 H       1  UNL1        0.0310
     23 H           5.3664   -0.7489    0.0000 H       1  UNL1        0.0274
     24 H           6.0567   -1.1474    0.0000 H       1  UNL1        0.0274
     25 H           6.6250    0.2922    0.0000 H       1  UNL1        0.0235
     26 H           6.8520    1.1392    0.0000 H       1  UNL1        0.0235
     27 H           6.0050    1.3661    0.0000 H       1  UNL1        0.0235
     28 H           1.4174   -0.1982    0.0000 H       1  UNL1        0.0572
     29 H           7.5316   -0.3248    0.0000 H       1  UNL1        0.0308
     30 H           6.8413    0.0737    0.0000 H       1  UNL1        0.0308
     31 H           2.2443   -1.5663    0.0000 H       1  UNL1        0.0274
     32 H           2.8856   -2.1643    0.0000 H       1  UNL1        0.0274
     33 H           3.4836   -1.5231    0.0000 H       1  UNL1        0.0274
     34 H           7.1390   -1.9398    0.0000 H       1  UNL1        0.0572
     35 H           9.0567    0.0737    0.0000 H       1  UNL1        0.0604
     36 H           8.3664   -0.3248    0.0000 H       1  UNL1        0.0604
     37 H           8.4121   -2.5789    0.0000 H       1  UNL1        0.0275
     38 H           9.2590   -2.8058    0.0000 H       1  UNL1        0.0275
     39 H           9.4859   -1.9589    0.0000 H       1  UNL1        0.0275
     40 H          10.2590    0.0001    0.0000 H       1  UNL1        0.2098
@<TRIPOS>BOND
     1     1    15    1
     2     1    40    1
     3     2     3    1
     4     2     4    1
     5     2     7    1
     6     2     9    1
     7     3     5    1
     8     3     6    1
     9     3    17    1
    10     4     5    1
    11     4     8    1
    12     4    18    1
    13     5    19    1
    14     5    20    1
    15     6    10    1
    16     6    21    1
    17     6    22    1
    18     7    11    1
    19     7    23    1
    20     7    24    1
    21     8    10    2
    22     8    12    1
    23     9    25    1
    24     9    26    1
    25     9    27    1
    26    10    28    1
    27    11    13    1
    28    11    29    1
    29    11    30    1
    30    12    31    1
    31    12    32    1
    32    12    33    1
    33    13    14    2
    34    13    34    1
    35    14    15    1
    36    14    16    1
    37    15    35    1
    38    15    36    1
    39    16    37    1
    40    16    38    1
    41    16    39    1
