@<TRIPOS>MOLECULE
IMPHY006361
 84 90 0 0 0
SMALL
GASTEIGER

@<TRIPOS>ATOM
      1 O           3.2704   -1.3358    0.0000 O.3     1  UNL1       -0.3633
      2 O           6.0538    2.4874    0.0000 O.3     1  UNL1       -0.3403
      3 O           2.5357   -0.5577    0.0000 O.3     1  UNL1       -0.3911
      4 O           7.0442   -2.1496    0.0000 O.3     1  UNL1       -0.4531
      5 O           6.1340    0.6882    0.0000 O.3     1  UNL1       -0.3910
      6 O           7.0120   -0.0582    0.0000 O.2     1  UNL1       -0.2931
      7 O           4.5357    3.4564    0.0000 O.3     1  UNL1       -0.4607
      8 O           5.1877    3.9874    0.0000 O.3     1  UNL1       -0.4345
      9 O           7.0778   -4.8195    0.0000 O.2     1  UNL1       -0.4708
     10 O           7.8928   -0.6397    0.0000 O.2     1  UNL1       -0.2511
     11 O           2.8885    3.9917    0.0000 O.2     1  UNL1       -0.2512
     12 O           6.9198    3.9874    0.0000 O.2     1  UNL1       -0.2511
     13 C           4.2974   -1.6669    0.0000 C.3     1  UNL1        0.1140
     14 C           4.3058   -0.5819    0.0000 C.3     1  UNL1        0.0362
     15 C           5.2370   -2.2094    0.0000 C.3     1  UNL1        0.0509
     16 C           3.4977   -2.3906    0.0000 C.3     1  UNL1        0.0903
     17 C           5.2038   -0.0541    0.0000 C.3     1  UNL1        0.0421
     18 C           5.1877    0.9874    0.0000 C.3     1  UNL1        0.0342
     19 C           5.0100   -3.2638    0.0000 C.3     1  UNL1        0.0015
     20 C           4.3217    1.4874    0.0000 C.3     1  UNL1       -0.0134
     21 C           3.4037   -0.0611    0.0000 C.3     1  UNL1        0.0643
     22 C           3.9373   -3.3756    0.0000 C.3     1  UNL1       -0.0162
     23 C           6.1725   -1.6596    0.0000 C.3     1  UNL1        0.1693
     24 C           3.4117    0.9805    0.0000 C.3     1  UNL1       -0.0219
     25 C           6.1557   -0.5748    0.0000 C.2     1  UNL1        0.1786
     26 C           4.3217    2.4874    0.0000 C.3     1  UNL1        0.0708
     27 C           3.3223   -0.7631    0.0000 C.3     1  UNL1       -0.0538
     28 C           5.3908    1.3573    0.0000 C.3     1  UNL1        0.0673
     29 C           6.1031   -2.7094    0.0000 C.3     1  UNL1       -0.0524
     30 C           6.0538    1.4874    0.0000 C.3     1  UNL1        0.0606
     31 C           4.7436    2.4783    0.0000 C.3     1  UNL1        0.1167
     32 C           5.4745    2.1529    0.0000 C.3     1  UNL1        0.0118
     33 C           5.1877    2.9874    0.0000 C.3     1  UNL1        0.2137
     34 C           5.6779   -4.0081    0.0000 C.ar    1  UNL1       -0.0058
     35 C           3.4557    2.9874    0.0000 C.3     1  UNL1       -0.0501
     36 C           5.4683   -4.9859    0.0000 C.ar    1  UNL1       -0.0205
     37 C           6.6726   -3.9053    0.0000 C.ar    1  UNL1        0.0951
     38 C           7.9044   -1.6396    0.0000 C.2     1  UNL1        0.3046
     39 C           6.3334   -5.4874    0.0000 C.ar    1  UNL1        0.0919
     40 C           3.8666    4.1996    0.0000 C.2     1  UNL1        0.3042
     41 C           6.0538    4.4874    0.0000 C.2     1  UNL1        0.3061
     42 C           8.7761   -2.1296    0.0000 C.3     1  UNL1        0.0333
     43 C           4.1756    5.1506    0.0000 C.3     1  UNL1        0.0332
     44 C           6.0538    5.4874    0.0000 C.3     1  UNL1        0.0333
     45 H           2.6898   -2.6548    0.0000 H       1  UNL1        0.0625
     46 H           5.9316    0.3850    0.0000 H       1  UNL1        0.0393
     47 H           4.7871   -3.8423    0.0000 H       1  UNL1        0.0358
     48 H           3.5856    1.9124    0.0000 H       1  UNL1        0.0317
     49 H           2.8686    0.2520    0.0000 H       1  UNL1        0.0600
     50 H           3.3477   -3.5674    0.0000 H       1  UNL1        0.0297
     51 H           4.0660   -3.9821    0.0000 H       1  UNL1        0.0297
     52 H           6.7052   -1.3424    0.0000 H       1  UNL1        0.0821
     53 H           3.2072    1.5658    0.0000 H       1  UNL1        0.0293
     54 H           2.8001    0.8791    0.0000 H       1  UNL1        0.0293
     55 H           3.2100   -0.1534    0.0000 H       1  UNL1        0.0237
     56 H           2.7126   -0.8754    0.0000 H       1  UNL1        0.0237
     57 H           3.4347   -1.3728    0.0000 H       1  UNL1        0.0237
     58 H           5.9696    1.5795    0.0000 H       1  UNL1        0.0601
     59 H           5.7931   -3.2463    0.0000 H       1  UNL1        0.0237
     60 H           6.6400   -3.0194    0.0000 H       1  UNL1        0.0237
     61 H           6.4131   -2.1724    0.0000 H       1  UNL1        0.0237
     62 H           6.2658    0.9048    0.0000 H       1  UNL1        0.0568
     63 H           6.6644    1.5950    0.0000 H       1  UNL1        0.0568
     64 H           5.2255    2.8685    0.0000 H       1  UNL1        0.0742
     65 H           6.0809    2.0240    0.0000 H       1  UNL1        0.0326
     66 H           5.6660    2.7426    0.0000 H       1  UNL1        0.0326
     67 H           4.6508    3.2974    0.0000 H       1  UNL1        0.1064
     68 H           3.7657    3.5243    0.0000 H       1  UNL1        0.0238
     69 H           2.9188    3.2974    0.0000 H       1  UNL1        0.0238
     70 H           3.1457    2.4504    0.0000 H       1  UNL1        0.0238
     71 H           2.0000   -0.2457    0.0000 H       1  UNL1        0.2098
     72 H           6.7236    0.8797    0.0000 H       1  UNL1        0.2098
     73 H           4.9014   -5.2371    0.0000 H       1  UNL1        0.0652
     74 H           6.9835   -3.3689    0.0000 H       1  UNL1        0.1032
     75 H           6.3972   -6.1041    0.0000 H       1  UNL1        0.1029
     76 H           8.4724   -2.6700    0.0000 H       1  UNL1        0.0342
     77 H           9.3166   -2.4333    0.0000 H       1  UNL1        0.0342
     78 H           9.0799   -1.5891    0.0000 H       1  UNL1        0.0342
     79 H           4.7652    4.9591    0.0000 H       1  UNL1        0.0342
     80 H           4.3672    5.7403    0.0000 H       1  UNL1        0.0342
     81 H           3.5859    5.3422    0.0000 H       1  UNL1        0.0342
     82 H           6.6738    5.4874    0.0000 H       1  UNL1        0.0342
     83 H           6.0538    6.1074    0.0000 H       1  UNL1        0.0342
     84 H           5.4338    5.4874    0.0000 H       1  UNL1        0.0342
@<TRIPOS>BOND
     1    13     1    1
     2     1    16    1
     3     2    30    1
     4     2    33    1
     5    21     3    1
     6     3    71    1
     7    23     4    1
     8     4    38    1
     9    28     5    1
    10     5    72    1
    11     6    25    2
    12    31     7    1
    13     7    40    1
    14    33     8    1
    15     8    41    1
    16     9    37   ar
    17     9    39   ar
    18    10    38    2
    19    11    40    2
    20    12    41    2
    21    13    14    1
    22    13    15    1
    23    13    16    1
    24    14    17    1
    25    14    21    1
    26    14    27    1
    27    15    19    1
    28    15    23    1
    29    15    29    1
    30    16    22    1
    31    16    45    1
    32    17    18    1
    33    17    25    1
    34    17    46    1
    35    18    20    1
    36    18    28    1
    37    18    30    1
    38    19    22    1
    39    19    34    1
    40    19    47    1
    41    20    24    1
    42    20    26    1
    43    20    48    1
    44    21    24    1
    45    21    49    1
    46    22    50    1
    47    22    51    1
    48    23    25    1
    49    23    52    1
    50    24    53    1
    51    24    54    1
    52    26    31    1
    53    26    33    1
    54    26    35    1
    55    27    55    1
    56    27    56    1
    57    27    57    1
    58    28    32    1
    59    28    58    1
    60    29    59    1
    61    29    60    1
    62    29    61    1
    63    30    62    1
    64    30    63    1
    65    31    32    1
    66    31    64    1
    67    32    65    1
    68    32    66    1
    69    33    67    1
    70    34    36   ar
    71    34    37   ar
    72    35    68    1
    73    35    69    1
    74    35    70    1
    75    36    39   ar
    76    36    73    1
    77    37    74    1
    78    38    42    1
    79    39    75    1
    80    40    43    1
    81    41    44    1
    82    42    76    1
    83    42    77    1
    84    42    78    1
    85    43    79    1
    86    43    80    1
    87    43    81    1
    88    44    82    1
    89    44    83    1
    90    44    84    1
