@<TRIPOS>MOLECULE
IMPHY012842
 49 49 0 0 0
SMALL
GASTEIGER

@<TRIPOS>ATOM
      1 O           2.5369    1.3100    0.0000 O.3     1  UNL1       -0.3888
      2 O           5.3583   -0.4561    0.0000 O.3     1  UNL1       -0.3875
      3 O           8.5991   -1.1900    0.0000 O.3     1  UNL1       -0.4570
      4 O           9.4651    0.3100    0.0000 O.2     1  UNL1       -0.2511
      5 C           4.2690    0.3100    0.0000 C.3     1  UNL1       -0.0097
      6 C           3.4030    0.8100    0.0000 C.3     1  UNL1        0.0634
      7 C           5.1350    0.8100    0.0000 C.3     1  UNL1       -0.0176
      8 C           4.2690   -0.6900    0.0000 C.3     1  UNL1       -0.0438
      9 C           6.0010    0.3100    0.0000 C.3     1  UNL1        0.0765
     10 C           5.1350   -1.1900    0.0000 C.3     1  UNL1       -0.0315
     11 C           2.9030   -0.0560    0.0000 C.3     1  UNL1       -0.0361
     12 C           3.9030    1.6760    0.0000 C.3     1  UNL1       -0.0361
     13 C           6.8671    0.8100    0.0000 C.2     1  UNL1       -0.0447
     14 C           6.0010   -0.6900    0.0000 C.2     1  UNL1       -0.0731
     15 C           7.7331    0.3100    0.0000 C.3     1  UNL1        0.0114
     16 C           7.7331   -0.6900    0.0000 C.3     1  UNL1        0.1252
     17 C           6.8671   -1.1900    0.0000 C.2     1  UNL1       -0.0447
     18 C           6.3867   -0.2304    0.0000 C.3     1  UNL1       -0.0437
     19 C           6.8671    1.8100    0.0000 C.2     1  UNL1       -0.0969
     20 C           9.4651   -0.6900    0.0000 C.2     1  UNL1        0.3045
     21 C          10.3312   -1.1900    0.0000 C.3     1  UNL1        0.0333
     22 H           4.2690    1.1600    0.0000 H       1  UNL1        0.0329
     23 H           5.5335    1.2850    0.0000 H       1  UNL1        0.0297
     24 H           4.7365    1.2850    0.0000 H       1  UNL1        0.0297
     25 H           3.6584   -0.5823    0.0000 H       1  UNL1        0.0272
     26 H           4.0569   -1.2726    0.0000 H       1  UNL1        0.0272
     27 H           6.3996   -0.1649    0.0000 H       1  UNL1        0.0640
     28 H           4.7365   -1.6650    0.0000 H       1  UNL1        0.0310
     29 H           5.5335   -1.6650    0.0000 H       1  UNL1        0.0310
     30 H           2.3660    0.2540    0.0000 H       1  UNL1        0.0257
     31 H           2.5930   -0.5930    0.0000 H       1  UNL1        0.0257
     32 H           3.4399   -0.3660    0.0000 H       1  UNL1        0.0257
     33 H           4.4399    1.3660    0.0000 H       1  UNL1        0.0257
     34 H           4.2130    2.2130    0.0000 H       1  UNL1        0.0257
     35 H           3.3660    1.9860    0.0000 H       1  UNL1        0.0257
     36 H           8.3437    0.2023    0.0000 H       1  UNL1        0.0350
     37 H           7.9451    0.8926    0.0000 H       1  UNL1        0.0350
     38 H           8.2700   -0.3800    0.0000 H       1  UNL1        0.0782
     39 H           2.0000    1.0000    0.0000 H       1  UNL1        0.2101
     40 H           6.8671   -1.8100    0.0000 H       1  UNL1        0.0608
     41 H           4.8214   -0.1461    0.0000 H       1  UNL1        0.2102
     42 H           6.8617   -0.6289    0.0000 H       1  UNL1        0.0274
     43 H           6.7852    0.2446    0.0000 H       1  UNL1        0.0274
     44 H           5.9118    0.1682    0.0000 H       1  UNL1        0.0274
     45 H           7.4040    2.1200    0.0000 H       1  UNL1        0.0535
     46 H           6.3301    2.1200    0.0000 H       1  UNL1        0.0535
     47 H          10.0212   -1.7269    0.0000 H       1  UNL1        0.0342
     48 H          10.8681   -1.5000    0.0000 H       1  UNL1        0.0342
     49 H          10.6412   -0.6531    0.0000 H       1  UNL1        0.0342
@<TRIPOS>BOND
     1     1     6    1
     2     1    39    1
     3     9     2    1
     4     2    41    1
     5    16     3    1
     6     3    20    1
     7     4    20    2
     8     5     6    1
     9     5     7    1
    10     5     8    1
    11     5    22    1
    12     6    11    1
    13     6    12    1
    14     7     9    1
    15     7    23    1
    16     7    24    1
    17     8    10    1
    18     8    25    1
    19     8    26    1
    20     9    13    1
    21     9    27    1
    22    10    14    1
    23    10    28    1
    24    10    29    1
    25    11    30    1
    26    11    31    1
    27    11    32    1
    28    12    33    1
    29    12    34    1
    30    12    35    1
    31    13    15    1
    32    13    19    2
    33    14    17    2
    34    14    18    1
    35    15    16    1
    36    15    36    1
    37    15    37    1
    38    16    17    1
    39    16    38    1
    40    17    40    1
    41    18    42    1
    42    18    43    1
    43    18    44    1
    44    19    45    1
    45    19    46    1
    46    20    21    1
    47    21    47    1
    48    21    48    1
    49    21    49    1
