@<TRIPOS>MOLECULE
IMPHY012236
 31 30 0 0 0
SMALL
GASTEIGER

@<TRIPOS>ATOM
      1 C           7.7331    0.6550    0.0000 C.3     1  UNL1       -0.0531
      2 C           6.8671    0.1550    0.0000 C.3     1  UNL1       -0.0530
      3 C           8.5991    0.1550    0.0000 C.3     1  UNL1       -0.0531
      4 C           6.0010    0.6550    0.0000 C.3     1  UNL1       -0.0522
      5 C           9.4651    0.6550    0.0000 C.3     1  UNL1       -0.0533
      6 C           5.1350    0.1550    0.0000 C.3     1  UNL1       -0.0422
      7 C          10.3312    0.1550    0.0000 C.3     1  UNL1       -0.0559
      8 C           4.2690    0.6550    0.0000 C.3     1  UNL1        0.0089
      9 C          11.1972    0.6550    0.0000 C.3     1  UNL1       -0.0653
     10 C           3.4030    0.1550    0.0000 C.1     1  UNL1       -0.1056
     11 C           2.5369   -0.3450    0.0000 C.1     1  UNL1       -0.1192
     12 H           8.1316    1.1300    0.0000 H       1  UNL1        0.0265
     13 H           7.3346    1.1300    0.0000 H       1  UNL1        0.0265
     14 H           6.4685   -0.3199    0.0000 H       1  UNL1        0.0265
     15 H           7.2656   -0.3199    0.0000 H       1  UNL1        0.0265
     16 H           8.2006   -0.3199    0.0000 H       1  UNL1        0.0265
     17 H           8.9976   -0.3199    0.0000 H       1  UNL1        0.0265
     18 H           6.3996    1.1300    0.0000 H       1  UNL1        0.0266
     19 H           5.6025    1.1300    0.0000 H       1  UNL1        0.0266
     20 H           9.8637    1.1300    0.0000 H       1  UNL1        0.0265
     21 H           9.0666    1.1300    0.0000 H       1  UNL1        0.0265
     22 H           4.7365   -0.3199    0.0000 H       1  UNL1        0.0274
     23 H           5.5335   -0.3199    0.0000 H       1  UNL1        0.0274
     24 H           9.9326   -0.3199    0.0000 H       1  UNL1        0.0263
     25 H          10.7297   -0.3199    0.0000 H       1  UNL1        0.0263
     26 H           4.6675    1.1300    0.0000 H       1  UNL1        0.0397
     27 H           3.8705    1.1300    0.0000 H       1  UNL1        0.0397
     28 H          11.5072    0.1181    0.0000 H       1  UNL1        0.0230
     29 H          11.7341    0.9650    0.0000 H       1  UNL1        0.0230
     30 H          10.8872    1.1919    0.0000 H       1  UNL1        0.0230
     31 H           2.0000   -0.6550    0.0000 H       1  UNL1        0.1228
@<TRIPOS>BOND
     1     1     2    1
     2     1     3    1
     3     1    12    1
     4     1    13    1
     5     2     4    1
     6     2    14    1
     7     2    15    1
     8     3     5    1
     9     3    16    1
    10     3    17    1
    11     4     6    1
    12     4    18    1
    13     4    19    1
    14     5     7    1
    15     5    20    1
    16     5    21    1
    17     6     8    1
    18     6    22    1
    19     6    23    1
    20     7     9    1
    21     7    24    1
    22     7    25    1
    23     8    10    1
    24     8    26    1
    25     8    27    1
    26     9    28    1
    27     9    29    1
    28     9    30    1
    29    10    11    3
    30    11    31    1
