@<TRIPOS>MOLECULE
IMPHY000167
 112 113 0 0 0
SMALL
GASTEIGER

@<TRIPOS>ATOM
      1 O          13.9253   -2.2985    0.0000 O.3     1  UNL1       -0.3683
      2 O          15.8933   -2.9979    0.0000 O.3     1  UNL1       -0.3892
      3 O          11.9573   -2.9979    0.0000 O.3     1  UNL1       -0.3892
      4 O          26.4892    1.8046    0.0000 O.3     1  UNL1       -0.4611
      5 O          20.9759   -1.9176    0.0000 O.3     1  UNL1       -0.3918
      6 O          27.6106    3.1895    0.0000 O.2     1  UNL1       -0.2505
      7 O          29.2474   -0.1498    0.0000 O.2     1  UNL1       -0.2977
      8 C          14.7343   -1.7107    0.0000 C.3     1  UNL1        0.0850
      9 C          13.1163   -1.7107    0.0000 C.3     1  UNL1        0.0850
     10 C          14.4253   -0.7597    0.0000 C.3     1  UNL1       -0.0217
     11 C          13.4253   -0.7597    0.0000 C.3     1  UNL1       -0.0217
     12 C          15.6854   -2.0197    0.0000 C.3     1  UNL1        0.0813
     13 C          12.1652   -2.0197    0.0000 C.3     1  UNL1        0.0813
     14 C          16.4285   -1.3506    0.0000 C.3     1  UNL1       -0.0244
     15 C          11.4221   -1.3506    0.0000 C.3     1  UNL1       -0.0244
     16 C          17.3796   -1.6596    0.0000 C.3     1  UNL1       -0.0506
     17 C          10.4710   -1.6596    0.0000 C.3     1  UNL1       -0.0506
     18 C          18.1227   -0.9905    0.0000 C.3     1  UNL1       -0.0529
     19 C           9.7279   -0.9905    0.0000 C.3     1  UNL1       -0.0530
     20 C          19.0738   -1.2995    0.0000 C.3     1  UNL1       -0.0507
     21 C          26.5937    0.8101    0.0000 C.3     1  UNL1        0.1039
     22 C          27.5719    0.6022    0.0000 C.3     1  UNL1       -0.0024
     23 C          19.8169   -0.6304    0.0000 C.3     1  UNL1       -0.0269
     24 C          28.0719    1.4682    0.0000 C.3     1  UNL1        0.0664
     25 C           8.7768   -1.2995    0.0000 C.3     1  UNL1       -0.0531
     26 C          25.8506    0.1409    0.0000 C.3     1  UNL1       -0.0156
     27 C          20.7680   -0.9394    0.0000 C.3     1  UNL1        0.0553
     28 C          24.8995    0.4500    0.0000 C.3     1  UNL1       -0.0497
     29 C          21.5111   -0.2703    0.0000 C.3     1  UNL1       -0.0269
     30 C          24.1564   -0.2192    0.0000 C.3     1  UNL1       -0.0529
     31 C          22.4622   -0.5793    0.0000 C.3     1  UNL1       -0.0507
     32 C          23.2053    0.0898    0.0000 C.3     1  UNL1       -0.0530
     33 C           8.0337   -0.6304    0.0000 C.3     1  UNL1       -0.0531
     34 C          27.4027    2.2113    0.0000 C.2     1  UNL1        0.3110
     35 C          29.0664    1.5727    0.0000 C.3     1  UNL1        0.0186
     36 C           7.0826   -0.9394    0.0000 C.3     1  UNL1       -0.0531
     37 C           6.3395   -0.2703    0.0000 C.3     1  UNL1       -0.0531
     38 C          29.6542    0.7637    0.0000 C.2     1  UNL1        0.1311
     39 C           5.3884   -0.5793    0.0000 C.3     1  UNL1       -0.0531
     40 C           4.6453    0.0898    0.0000 C.3     1  UNL1       -0.0531
     41 C          30.6487    0.8682    0.0000 C.3     1  UNL1       -0.0060
     42 C           3.6942   -0.2192    0.0000 C.3     1  UNL1       -0.0533
     43 C           2.9511    0.4500    0.0000 C.3     1  UNL1       -0.0559
     44 C           2.0000    0.1409    0.0000 C.3     1  UNL1       -0.0653
     45 H          14.8673   -2.5503    0.0000 H       1  UNL1        0.0622
     46 H          12.9833   -2.5503    0.0000 H       1  UNL1        0.0622
     47 H          15.0317   -0.6308    0.0000 H       1  UNL1        0.0292
     48 H          14.3605   -0.1431    0.0000 H       1  UNL1        0.0292
     49 H          13.4901   -0.1431    0.0000 H       1  UNL1        0.0292
     50 H          12.8188   -0.6308    0.0000 H       1  UNL1        0.0292
     51 H          16.2750   -2.2113    0.0000 H       1  UNL1        0.0619
     52 H          11.5756   -2.2113    0.0000 H       1  UNL1        0.0619
     53 H          16.7196   -0.8032    0.0000 H       1  UNL1        0.0291
     54 H          15.9399   -0.9689    0.0000 H       1  UNL1        0.0291
     55 H          11.9106   -0.9689    0.0000 H       1  UNL1        0.0291
     56 H          11.1310   -0.8032    0.0000 H       1  UNL1        0.0291
     57 H          17.0885   -2.2070    0.0000 H       1  UNL1        0.0266
     58 H          17.8681   -2.0413    0.0000 H       1  UNL1        0.0266
     59 H           9.9824   -2.0413    0.0000 H       1  UNL1        0.0266
     60 H          10.7621   -2.2070    0.0000 H       1  UNL1        0.0266
     61 H          18.4138   -0.4431    0.0000 H       1  UNL1        0.0265
     62 H          17.6341   -0.6088    0.0000 H       1  UNL1        0.0265
     63 H          10.2164   -0.6088    0.0000 H       1  UNL1        0.0265
     64 H           9.4368   -0.4431    0.0000 H       1  UNL1        0.0265
     65 H          16.4829   -3.1895    0.0000 H       1  UNL1        0.2099
     66 H          18.7827   -1.8469    0.0000 H       1  UNL1        0.0266
     67 H          19.5623   -1.6812    0.0000 H       1  UNL1        0.0266
     68 H          11.3676   -3.1895    0.0000 H       1  UNL1        0.2099
     69 H          26.0149    1.0323    0.0000 H       1  UNL1        0.0734
     70 H          27.3803    0.0125    0.0000 H       1  UNL1        0.0309
     71 H          28.1383    0.3500    0.0000 H       1  UNL1        0.0309
     72 H          28.5348    0.7553    0.0000 H       1  UNL1        0.0419
     73 H          20.1080   -0.0830    0.0000 H       1  UNL1        0.0290
     74 H          19.3283   -0.2487    0.0000 H       1  UNL1        0.0290
     75 H          25.5595   -0.4065    0.0000 H       1  UNL1        0.0301
     76 H          26.3391   -0.2408    0.0000 H       1  UNL1        0.0301
     77 H           8.2882   -1.6812    0.0000 H       1  UNL1        0.0265
     78 H           9.0679   -1.8469    0.0000 H       1  UNL1        0.0265
     79 H          21.3576   -1.1310    0.0000 H       1  UNL1        0.0593
     80 H          25.1906    0.9974    0.0000 H       1  UNL1        0.0266
     81 H          24.4109    0.8317    0.0000 H       1  UNL1        0.0266
     82 H          21.8022    0.2772    0.0000 H       1  UNL1        0.0290
     83 H          21.0225    0.1114    0.0000 H       1  UNL1        0.0290
     84 H          23.8653   -0.7666    0.0000 H       1  UNL1        0.0265
     85 H          24.6449   -0.6009    0.0000 H       1  UNL1        0.0265
     86 H          22.1711   -1.1267    0.0000 H       1  UNL1        0.0266
     87 H          22.9507   -0.9610    0.0000 H       1  UNL1        0.0266
     88 H          23.4964    0.6373    0.0000 H       1  UNL1        0.0265
     89 H          22.7167    0.4716    0.0000 H       1  UNL1        0.0265
     90 H           8.5222   -0.2487    0.0000 H       1  UNL1        0.0265
     91 H           7.7426   -0.0830    0.0000 H       1  UNL1        0.0265
     92 H          29.6236    1.8445    0.0000 H       1  UNL1        0.0349
     93 H          28.8955    2.1687    0.0000 H       1  UNL1        0.0349
     94 H           6.5940   -1.3211    0.0000 H       1  UNL1        0.0265
     95 H           7.3737   -1.4868    0.0000 H       1  UNL1        0.0265
     96 H           6.8280    0.1114    0.0000 H       1  UNL1        0.0265
     97 H           6.0484    0.2772    0.0000 H       1  UNL1        0.0265
     98 H          21.5655   -2.1091    0.0000 H       1  UNL1        0.2098
     99 H           4.8998   -0.9610    0.0000 H       1  UNL1        0.0265
    100 H           5.6795   -1.1267    0.0000 H       1  UNL1        0.0265
    101 H           5.1338    0.4716    0.0000 H       1  UNL1        0.0265
    102 H           4.3542    0.6373    0.0000 H       1  UNL1        0.0265
    103 H          30.7135    0.2516    0.0000 H       1  UNL1        0.0306
    104 H          31.2653    0.9330    0.0000 H       1  UNL1        0.0306
    105 H          30.5839    1.4848    0.0000 H       1  UNL1        0.0306
    106 H           3.2056   -0.6009    0.0000 H       1  UNL1        0.0265
    107 H           3.9853   -0.7666    0.0000 H       1  UNL1        0.0265
    108 H           3.4396    0.8317    0.0000 H       1  UNL1        0.0263
    109 H           2.6600    0.9974    0.0000 H       1  UNL1        0.0263
    110 H           1.8084    0.7306    0.0000 H       1  UNL1        0.0230
    111 H           1.4103   -0.0506    0.0000 H       1  UNL1        0.0230
    112 H           2.1916   -0.4487    0.0000 H       1  UNL1        0.0230
@<TRIPOS>BOND
     1     1     8    1
     2     1     9    1
     3    12     2    1
     4     2    65    1
     5    13     3    1
     6     3    68    1
     7     4    21    1
     8     4    34    1
     9    27     5    1
    10     5    98    1
    11     6    34    2
    12     7    38    2
    13     8    10    1
    14     8    12    1
    15     8    45    1
    16     9    11    1
    17     9    13    1
    18     9    46    1
    19    10    11    1
    20    10    47    1
    21    10    48    1
    22    11    49    1
    23    11    50    1
    24    12    14    1
    25    12    51    1
    26    13    15    1
    27    13    52    1
    28    14    16    1
    29    14    53    1
    30    14    54    1
    31    15    17    1
    32    15    55    1
    33    15    56    1
    34    16    18    1
    35    16    57    1
    36    16    58    1
    37    17    19    1
    38    17    59    1
    39    17    60    1
    40    18    20    1
    41    18    61    1
    42    18    62    1
    43    19    25    1
    44    19    63    1
    45    19    64    1
    46    20    23    1
    47    20    66    1
    48    20    67    1
    49    21    22    1
    50    21    26    1
    51    21    69    1
    52    22    24    1
    53    22    70    1
    54    22    71    1
    55    23    27    1
    56    23    73    1
    57    23    74    1
    58    24    34    1
    59    24    35    1
    60    24    72    1
    61    25    33    1
    62    25    77    1
    63    25    78    1
    64    26    28    1
    65    26    75    1
    66    26    76    1
    67    27    29    1
    68    27    79    1
    69    28    30    1
    70    28    80    1
    71    28    81    1
    72    29    31    1
    73    29    82    1
    74    29    83    1
    75    30    32    1
    76    30    84    1
    77    30    85    1
    78    31    32    1
    79    31    86    1
    80    31    87    1
    81    32    88    1
    82    32    89    1
    83    33    36    1
    84    33    90    1
    85    33    91    1
    86    35    38    1
    87    35    92    1
    88    35    93    1
    89    36    37    1
    90    36    94    1
    91    36    95    1
    92    37    39    1
    93    37    96    1
    94    37    97    1
    95    38    41    1
    96    39    40    1
    97    39    99    1
    98    39   100    1
    99    40    42    1
   100    40   101    1
   101    40   102    1
   102    41   103    1
   103    41   104    1
   104    41   105    1
   105    42    43    1
   106    42   106    1
   107    42   107    1
   108    43    44    1
   109    43   108    1
   110    43   109    1
   111    44   110    1
   112    44   111    1
   113    44   112    1
