@<TRIPOS>MOLECULE
IMPHY006083
 90 95 0 0 0
SMALL
GASTEIGER

@<TRIPOS>ATOM
      1 O           6.8671   -6.2769    0.0000 O.3     1  UNL1       -0.3366
      2 O           7.8376   -4.7824    0.0000 O.3     1  UNL1       -0.3457
      3 O           5.1350   -4.2769    0.0000 O.3     1  UNL1       -0.3313
      4 O          10.1818   -4.9405    0.0000 O.3     1  UNL1       -0.3812
      5 O           8.8546   -7.1618    0.0000 O.3     1  UNL1       -0.3837
      6 O           5.1350   -7.2769    0.0000 O.3     1  UNL1       -0.3863
      7 O           6.8671   -4.2769    0.0000 O.3     1  UNL1       -0.4608
      8 O           3.4030   -6.2769    0.0000 O.3     1  UNL1       -0.3865
      9 O           8.6588    4.7715    0.0000 O.3     1  UNL1       -0.3313
     10 O          11.0100   -5.8006    0.0000 O.3     1  UNL1       -0.3920
     11 O           2.5369   -4.7769    0.0000 O.3     1  UNL1       -0.3924
     12 O           9.5191    3.2682    0.0000 O.3     1  UNL1       -0.4607
     13 O          11.2627    6.2615    0.0000 O.3     1  UNL1       -0.3864
     14 O           9.5345    7.2682    0.0000 O.3     1  UNL1       -0.3865
     15 O          11.2550    4.2615    0.0000 O.3     1  UNL1       -0.3829
     16 O           7.7331    0.2231    0.0000 O.3     1  UNL1       -0.4830
     17 O           7.8024    7.2748    0.0000 O.3     1  UNL1       -0.3924
     18 O           5.1350    1.7231    0.0000 O.2     1  UNL1       -0.2918
     19 C           6.0010   -5.7769    0.0000 C.3     1  UNL1        0.1519
     20 C           9.3158   -5.4405    0.0000 C.3     1  UNL1        0.1425
     21 C           8.6466   -6.1836    0.0000 C.3     1  UNL1        0.1387
     22 C           5.1350   -6.2769    0.0000 C.3     1  UNL1        0.1155
     23 C           7.7331   -5.7769    0.0000 C.3     1  UNL1        0.1885
     24 C           4.2690   -5.7769    0.0000 C.3     1  UNL1        0.1120
     25 C           6.0010   -4.7769    0.0000 C.3     1  UNL1        0.2312
     26 C           4.2690   -4.7769    0.0000 C.3     1  UNL1        0.1140
     27 C           8.8158   -4.5745    0.0000 C.3     1  UNL1        0.0843
     28 C          10.0589   -6.1096    0.0000 C.3     1  UNL1        0.0778
     29 C           3.4030   -4.2769    0.0000 C.3     1  UNL1        0.0731
     30 C          10.3947    5.7648    0.0000 C.3     1  UNL1        0.1152
     31 C           9.5306    6.2682    0.0000 C.3     1  UNL1        0.1120
     32 C          10.3909    4.7648    0.0000 C.3     1  UNL1        0.1454
     33 C           8.6627    5.7715    0.0000 C.3     1  UNL1        0.1140
     34 C           9.5229    4.2682    0.0000 C.3     1  UNL1        0.2308
     35 C           6.8671   -3.2769    0.0000 C.ar    1  UNL1        0.1240
     36 C           7.7986    6.2748    0.0000 C.3     1  UNL1        0.0731
     37 C           6.8671   -0.2769    0.0000 C.3     1  UNL1        0.1322
     38 C           7.7331   -2.7769    0.0000 C.ar    1  UNL1       -0.0195
     39 C           6.0010   -2.7769    0.0000 C.ar    1  UNL1       -0.0195
     40 C           6.8671   -1.2769    0.0000 C.ar    1  UNL1       -0.0067
     41 C           8.6511    2.7715    0.0000 C.ar    1  UNL1        0.1275
     42 C           7.7331   -1.7769    0.0000 C.ar    1  UNL1       -0.0516
     43 C           6.0010   -1.7769    0.0000 C.ar    1  UNL1       -0.0516
     44 C           6.0010    0.2231    0.0000 C.3     1  UNL1        0.0519
     45 C           7.7331    1.2231    0.0000 C.ar    1  UNL1        0.1353
     46 C           6.8671    1.7231    0.0000 C.ar    1  UNL1        0.0594
     47 C           8.6431    1.7299    0.0000 C.ar    1  UNL1        0.0226
     48 C           6.0010    1.2231    0.0000 C.2     1  UNL1        0.1705
     49 C           7.7490    3.2924    0.0000 C.ar    1  UNL1       -0.0189
     50 C           6.8510    2.7646    0.0000 C.ar    1  UNL1       -0.0443
     51 H           6.0010   -6.3969    0.0000 H       1  UNL1        0.0687
     52 H           9.2455   -6.3441    0.0000 H       1  UNL1        0.0675
     53 H           4.5981   -6.5869    0.0000 H       1  UNL1        0.0648
     54 H           7.2131   -5.4392    0.0000 H       1  UNL1        0.0938
     55 H           3.7320   -5.4669    0.0000 H       1  UNL1        0.0647
     56 H           6.0010   -4.1569    0.0000 H       1  UNL1        0.1084
     57 H           4.2690   -4.1569    0.0000 H       1  UNL1        0.0647
     58 H           9.3822   -4.3223    0.0000 H       1  UNL1        0.0591
     59 H           8.6242   -3.9848    0.0000 H       1  UNL1        0.0591
     60 H           9.5703   -6.4913    0.0000 H       1  UNL1        0.0587
     61 H          10.3500   -6.6571    0.0000 H       1  UNL1        0.0587
     62 H           3.8015   -3.8020    0.0000 H       1  UNL1        0.0584
     63 H           3.0044   -3.8020    0.0000 H       1  UNL1        0.0584
     64 H          10.1818   -4.3205    0.0000 H       1  UNL1        0.2105
     65 H           8.3938   -7.5766    0.0000 H       1  UNL1        0.2101
     66 H          10.9305    5.4528    0.0000 H       1  UNL1        0.0648
     67 H           8.9949    6.5802    0.0000 H       1  UNL1        0.0647
     68 H           4.5981   -7.5869    0.0000 H       1  UNL1        0.2100
     69 H          10.3885    4.1448    0.0000 H       1  UNL1        0.0683
     70 H           8.1246    5.4636    0.0000 H       1  UNL1        0.0647
     71 H           3.4030   -6.8969    0.0000 H       1  UNL1        0.2100
     72 H           8.9848    3.9603    0.0000 H       1  UNL1        0.1084
     73 H          11.4707   -6.2155    0.0000 H       1  UNL1        0.2095
     74 H           7.1884    6.3849    0.0000 H       1  UNL1        0.0584
     75 H           7.5843    5.6931    0.0000 H       1  UNL1        0.0584
     76 H           2.0000   -4.4669    0.0000 H       1  UNL1        0.2095
     77 H          11.2651    6.8815    0.0000 H       1  UNL1        0.2100
     78 H          10.0726    7.5761    0.0000 H       1  UNL1        0.2100
     79 H           7.4040   -0.5869    0.0000 H       1  UNL1        0.0789
     80 H           8.2700   -3.0869    0.0000 H       1  UNL1        0.0654
     81 H           5.4641   -3.0869    0.0000 H       1  UNL1        0.0654
     82 H          11.7931    4.5694    0.0000 H       1  UNL1        0.2102
     83 H           5.3905    0.3308    0.0000 H       1  UNL1        0.0385
     84 H           5.7890   -0.3595    0.0000 H       1  UNL1        0.0385
     85 H           8.2700   -1.4669    0.0000 H       1  UNL1        0.0623
     86 H           5.4641   -1.4669    0.0000 H       1  UNL1        0.0623
     87 H           9.1764    1.4138    0.0000 H       1  UNL1        0.0691
     88 H           7.2667    7.5869    0.0000 H       1  UNL1        0.2095
     89 H           7.7466    3.9124    0.0000 H       1  UNL1        0.0654
     90 H           6.3105    3.0684    0.0000 H       1  UNL1        0.0627
@<TRIPOS>BOND
     1     1    19    1
     2     1    23    1
     3     2    23    1
     4     2    27    1
     5     3    25    1
     6     3    26    1
     7     4    20    1
     8     4    64    1
     9     5    21    1
    10     5    65    1
    11     6    22    1
    12     6    68    1
    13     7    25    1
    14     7    35    1
    15     8    24    1
    16     8    71    1
    17     9    33    1
    18     9    34    1
    19    10    28    1
    20    10    73    1
    21    11    29    1
    22    11    76    1
    23    12    34    1
    24    12    41    1
    25    13    30    1
    26    13    77    1
    27    14    31    1
    28    14    78    1
    29    15    32    1
    30    15    82    1
    31    16    37    1
    32    16    45    1
    33    17    36    1
    34    17    88    1
    35    18    48    2
    36    19    22    1
    37    19    25    1
    38    19    51    1
    39    20    21    1
    40    20    27    1
    41    20    28    1
    42    21    23    1
    43    21    52    1
    44    22    24    1
    45    22    53    1
    46    23    54    1
    47    24    26    1
    48    24    55    1
    49    25    56    1
    50    26    29    1
    51    26    57    1
    52    27    58    1
    53    27    59    1
    54    28    60    1
    55    28    61    1
    56    29    62    1
    57    29    63    1
    58    30    31    1
    59    30    32    1
    60    30    66    1
    61    31    33    1
    62    31    67    1
    63    32    34    1
    64    32    69    1
    65    33    36    1
    66    33    70    1
    67    34    72    1
    68    35    38   ar
    69    35    39   ar
    70    36    74    1
    71    36    75    1
    72    37    40    1
    73    37    44    1
    74    37    79    1
    75    38    42   ar
    76    38    80    1
    77    39    43   ar
    78    39    81    1
    79    40    42   ar
    80    40    43   ar
    81    41    47   ar
    82    41    49   ar
    83    42    85    1
    84    43    86    1
    85    44    48    1
    86    44    83    1
    87    44    84    1
    88    45    46   ar
    89    45    47   ar
    90    46    48    1
    91    46    50   ar
    92    47    87    1
    93    49    50   ar
    94    49    89    1
    95    50    90    1
