@<TRIPOS>MOLECULE
IMPHY004420
 35 37 0 0 0
SMALL
GASTEIGER

@<TRIPOS>ATOM
      1 O           6.0290   -0.1743    0.0000 O.2     1  UNL1       -0.4543
      2 O           4.2690    2.8604    0.0000 O.3     1  UNL1       -0.5027
      3 O           8.6555   -2.6671    0.0000 O.3     1  UNL1       -0.4914
      4 O           6.0174    2.8950    0.0000 O.2     1  UNL1       -0.2869
      5 O           2.5369    1.8604    0.0000 O.3     1  UNL1       -0.5009
      6 O           2.5369   -0.1396    0.0000 O.3     1  UNL1       -0.5031
      7 O          10.3914   -1.6738    0.0000 O.3     1  UNL1       -0.5033
      8 C           5.1350    1.3604    0.0000 C.ar    1  UNL1        0.1091
      9 C           5.1350    0.3604    0.0000 C.ar    1  UNL1        0.1465
     10 C           6.9350    0.3396    0.0000 C.ar    1  UNL1        0.1393
     11 C           7.7991   -0.1637    0.0000 C.ar    1  UNL1        0.0211
     12 C           6.0290    1.8951    0.0000 C.ar    1  UNL1        0.1967
     13 C           6.9350    1.3812    0.0000 C.ar    1  UNL1        0.0288
     14 C           4.2690    1.8604    0.0000 C.ar    1  UNL1        0.1766
     15 C           4.2690   -0.1396    0.0000 C.ar    1  UNL1        0.0268
     16 C           3.4030    1.3604    0.0000 C.ar    1  UNL1        0.2015
     17 C           3.4030    0.3604    0.0000 C.ar    1  UNL1        0.1655
     18 C           7.7953   -1.1637    0.0000 C.ar    1  UNL1       -0.0057
     19 C           8.6671    0.3329    0.0000 C.ar    1  UNL1       -0.0474
     20 C           8.6594   -1.6671    0.0000 C.ar    1  UNL1        0.1619
     21 C           9.5312   -0.1704    0.0000 C.ar    1  UNL1       -0.0159
     22 C           9.5273   -1.1704    0.0000 C.ar    1  UNL1        0.1585
     23 C           9.5196   -3.1704    0.0000 C.3     1  UNL1        0.0790
     24 H           7.4708    1.6933    0.0000 H       1  UNL1        0.0693
     25 H           4.2690   -0.7596    0.0000 H       1  UNL1        0.0692
     26 H           7.2571   -1.4717    0.0000 H       1  UNL1        0.0662
     27 H           8.6694    0.9529    0.0000 H       1  UNL1        0.0626
     28 H          10.0693    0.1375    0.0000 H       1  UNL1        0.0655
     29 H           3.7320    3.1704    0.0000 H       1  UNL1        0.2923
     30 H           2.0000    1.5504    0.0000 H       1  UNL1        0.2924
     31 H           2.5369   -0.7596    0.0000 H       1  UNL1        0.2923
     32 H          10.9295   -1.3658    0.0000 H       1  UNL1        0.2923
     33 H           9.2075   -3.7061    0.0000 H       1  UNL1        0.0660
     34 H          10.0553   -3.4825    0.0000 H       1  UNL1        0.0660
     35 H           9.8316   -2.6347    0.0000 H       1  UNL1        0.0660
@<TRIPOS>BOND
     1     1     9   ar
     2     1    10   ar
     3     2    14    1
     4     2    29    1
     5     3    20    1
     6     3    23    1
     7     4    12    2
     8     5    16    1
     9     5    30    1
    10     6    17    1
    11     6    31    1
    12     7    22    1
    13     7    32    1
    14     8     9   ar
    15     8    12   ar
    16     8    14   ar
    17     9    15   ar
    18    10    11    1
    19    10    13   ar
    20    11    18   ar
    21    11    19   ar
    22    12    13   ar
    23    13    24    1
    24    14    16   ar
    25    15    17   ar
    26    15    25    1
    27    16    17   ar
    28    18    20   ar
    29    18    26    1
    30    19    21   ar
    31    19    27    1
    32    20    22   ar
    33    21    22   ar
    34    21    28    1
    35    23    33    1
    36    23    34    1
    37    23    35    1
