@<TRIPOS>MOLECULE
IMPHY013799
 42 42 0 0 0
SMALL
GASTEIGER

@<TRIPOS>ATOM
      1 O           2.6200    0.6340    0.0000 O.3     1  UNL1       -0.3880
      2 C           3.1200   -0.2321    0.0000 C.3     1  UNL1        0.0724
      3 C           3.6200    0.6340    0.0000 C.3     1  UNL1       -0.0144
      4 C           2.2540   -0.7321    0.0000 C.3     1  UNL1       -0.0198
      5 C           3.9860   -0.7321    0.0000 C.3     1  UNL1       -0.0053
      6 C           4.6200    0.6340    0.0000 C.3     1  UNL1       -0.0444
      7 C           2.2540   -1.7320    0.0000 C.3     1  UNL1       -0.0294
      8 C           3.1200    1.5000    0.0000 C.3     1  UNL1       -0.0598
      9 C           3.1200   -2.2320    0.0000 C.2     1  UNL1       -0.0763
     10 C           3.9860   -1.7320    0.0000 C.2     1  UNL1       -0.0823
     11 C           5.1200    1.5000    0.0000 C.3     1  UNL1       -0.0342
     12 C           3.1200   -3.2320    0.0000 C.3     1  UNL1       -0.0438
     13 C           6.1200    1.5000    0.0000 C.2     1  UNL1       -0.0853
     14 C           6.6200    2.3660    0.0000 C.2     1  UNL1       -0.0796
     15 C           7.6200    2.3660    0.0000 C.3     1  UNL1       -0.0440
     16 C           6.1200    3.2320    0.0000 C.3     1  UNL1       -0.0440
     17 H           3.9300    1.1709    0.0000 H       1  UNL1        0.0326
     18 H           2.0419   -0.1494    0.0000 H       1  UNL1        0.0296
     19 H           1.6434   -0.8397    0.0000 H       1  UNL1        0.0296
     20 H           4.5966   -0.8397    0.0000 H       1  UNL1        0.0335
     21 H           4.1981   -0.1494    0.0000 H       1  UNL1        0.0335
     22 H           4.5123    0.0234    0.0000 H       1  UNL1        0.0272
     23 H           5.2026    0.4219    0.0000 H       1  UNL1        0.0272
     24 H           1.6434   -1.6244    0.0000 H       1  UNL1        0.0311
     25 H           2.0419   -2.3147    0.0000 H       1  UNL1        0.0311
     26 H           3.6569    1.8100    0.0000 H       1  UNL1        0.0233
     27 H           2.8100    2.0369    0.0000 H       1  UNL1        0.0233
     28 H           2.5831    1.1900    0.0000 H       1  UNL1        0.0233
     29 H           4.5230   -2.0420    0.0000 H       1  UNL1        0.0572
     30 H           5.2277    2.1106    0.0000 H       1  UNL1        0.0307
     31 H           4.5374    1.7120    0.0000 H       1  UNL1        0.0307
     32 H           2.0000    0.6340    0.0000 H       1  UNL1        0.2102
     33 H           2.5000   -3.2320    0.0000 H       1  UNL1        0.0274
     34 H           3.1200   -3.8520    0.0000 H       1  UNL1        0.0274
     35 H           3.7400   -3.2320    0.0000 H       1  UNL1        0.0274
     36 H           6.4300    0.9631    0.0000 H       1  UNL1        0.0571
     37 H           7.6200    1.7460    0.0000 H       1  UNL1        0.0274
     38 H           8.2400    2.3660    0.0000 H       1  UNL1        0.0274
     39 H           7.6200    2.9860    0.0000 H       1  UNL1        0.0274
     40 H           6.6569    3.5420    0.0000 H       1  UNL1        0.0274
     41 H           5.8100    3.7690    0.0000 H       1  UNL1        0.0274
     42 H           5.5831    2.9220    0.0000 H       1  UNL1        0.0274
@<TRIPOS>BOND
     1     1     2    1
     2     1    32    1
     3     2     3    1
     4     2     4    1
     5     2     5    1
     6     3     6    1
     7     3     8    1
     8     3    17    1
     9     4     7    1
    10     4    18    1
    11     4    19    1
    12     5    10    1
    13     5    20    1
    14     5    21    1
    15     6    11    1
    16     6    22    1
    17     6    23    1
    18     7     9    1
    19     7    24    1
    20     7    25    1
    21     8    26    1
    22     8    27    1
    23     8    28    1
    24     9    10    2
    25     9    12    1
    26    10    29    1
    27    11    13    1
    28    11    30    1
    29    11    31    1
    30    12    33    1
    31    12    34    1
    32    12    35    1
    33    13    14    2
    34    13    36    1
    35    14    15    1
    36    14    16    1
    37    15    37    1
    38    15    38    1
    39    15    39    1
    40    16    40    1
    41    16    41    1
    42    16    42    1
