@<TRIPOS>MOLECULE
IMPHY014063
 34 36 0 0 0
SMALL
GASTEIGER

@<TRIPOS>ATOM
      1 O           6.3981   -0.2704    0.0000 O.2     1  UNL1       -0.4544
      2 O           2.8680   -0.2945    0.0000 O.3     1  UNL1       -0.4949
      3 O           4.6497    2.7642    0.0000 O.3     1  UNL1       -0.5058
      4 O           6.3981    2.7296    0.0000 O.2     1  UNL1       -0.2869
      5 O           8.9962   -2.7704    0.0000 O.3     1  UNL1       -0.5033
      6 O          10.7282   -1.7704    0.0000 O.3     1  UNL1       -0.5033
      7 C           5.5320    1.2296    0.0000 C.ar    1  UNL1        0.1055
      8 C           5.5320    0.2296    0.0000 C.ar    1  UNL1        0.1462
      9 C           7.2641    0.2296    0.0000 C.ar    1  UNL1        0.1393
     10 C           8.1301   -0.2704    0.0000 C.ar    1  UNL1        0.0211
     11 C           6.3981    1.7296    0.0000 C.ar    1  UNL1        0.1966
     12 C           4.6381    1.7643    0.0000 C.ar    1  UNL1        0.1347
     13 C           7.2641    1.2296    0.0000 C.ar    1  UNL1        0.0288
     14 C           4.6381   -0.3051    0.0000 C.ar    1  UNL1        0.0233
     15 C           3.7320    0.2088    0.0000 C.ar    1  UNL1        0.1271
     16 C           3.7320    1.2504    0.0000 C.ar    1  UNL1        0.0225
     17 C           8.1301   -1.2704    0.0000 C.ar    1  UNL1       -0.0059
     18 C           8.9962    0.2296    0.0000 C.ar    1  UNL1       -0.0474
     19 C           8.9962   -1.7704    0.0000 C.ar    1  UNL1        0.1589
     20 C           9.8622   -0.2704    0.0000 C.ar    1  UNL1       -0.0159
     21 C           9.8622   -1.2704    0.0000 C.ar    1  UNL1        0.1583
     22 C           2.0000    0.2021    0.0000 C.3     1  UNL1        0.0788
     23 H           7.8010    1.5396    0.0000 H       1  UNL1        0.0693
     24 H           4.6453   -0.9250    0.0000 H       1  UNL1        0.0691
     25 H           3.1963    1.5625    0.0000 H       1  UNL1        0.0691
     26 H           7.5932   -1.5804    0.0000 H       1  UNL1        0.0662
     27 H           8.9962    0.8496    0.0000 H       1  UNL1        0.0626
     28 H          10.3991    0.0396    0.0000 H       1  UNL1        0.0655
     29 H           4.1164    3.0804    0.0000 H       1  UNL1        0.2922
     30 H           2.3079    0.7402    0.0000 H       1  UNL1        0.0660
     31 H           1.4619    0.5100    0.0000 H       1  UNL1        0.0660
     32 H           1.6921   -0.3360    0.0000 H       1  UNL1        0.0660
     33 H           8.4592   -3.0804    0.0000 H       1  UNL1        0.2923
     34 H          11.2651   -1.4604    0.0000 H       1  UNL1        0.2923
@<TRIPOS>BOND
     1     1     8   ar
     2     1     9   ar
     3     2    15    1
     4     2    22    1
     5     3    12    1
     6     3    29    1
     7     4    11    2
     8     5    19    1
     9     5    33    1
    10     6    21    1
    11     6    34    1
    12     7     8   ar
    13     7    11   ar
    14     7    12   ar
    15     8    14   ar
    16     9    10    1
    17     9    13   ar
    18    10    17   ar
    19    10    18   ar
    20    11    13   ar
    21    12    16   ar
    22    13    23    1
    23    14    15   ar
    24    14    24    1
    25    15    16   ar
    26    16    25    1
    27    17    19   ar
    28    17    26    1
    29    18    20   ar
    30    18    27    1
    31    19    21   ar
    32    20    21   ar
    33    20    28    1
    34    22    30    1
    35    22    31    1
    36    22    32    1
