@<TRIPOS>MOLECULE
IMPHY007001
 36 38 0 0 0
SMALL
GASTEIGER

@<TRIPOS>ATOM
      1 O           7.3424   -1.0720    0.0000 O.3     1  UNL1       -0.4571
      2 O           2.0000   -1.2914    0.0000 O.2     1  UNL1       -0.2974
      3 O           8.9260   -0.2673    0.0000 O.2     1  UNL1       -0.2453
      4 C           4.6641   -0.7673    0.0000 C.3     1  UNL1       -0.0008
      5 C           5.5301   -1.2673    0.0000 C.3     1  UNL1       -0.0053
      6 C           4.6641    0.2327    0.0000 C.2     1  UNL1       -0.0631
      7 C           6.3961   -0.7673    0.0000 C.3     1  UNL1        0.1146
      8 C           6.3961    0.2327    0.0000 C.3     1  UNL1        0.0458
      9 C           3.7702   -1.3020    0.0000 C.3     1  UNL1        0.0150
     10 C           3.7702    0.7674    0.0000 C.3     1  UNL1       -0.0155
     11 C           5.5301    0.7327    0.0000 C.2     1  UNL1       -0.0729
     12 C           4.6641   -1.7673    0.0000 C.3     1  UNL1       -0.0553
     13 C           2.8641    0.2535    0.0000 C.3     1  UNL1        0.0121
     14 C           2.8641   -0.7881    0.0000 C.2     1  UNL1        0.1347
     15 C           7.3424    0.5374    0.0000 C.2     1  UNL1        0.0398
     16 C           3.7817    1.7673    0.0000 C.3     1  UNL1       -0.0583
     17 C           7.9260   -0.2673    0.0000 C.2     1  UNL1        0.3356
     18 C           7.6530    1.4880    0.0000 C.2     1  UNL1       -0.0880
     19 H           5.1316   -1.7422    0.0000 H       1  UNL1        0.0310
     20 H           5.9286   -1.7422    0.0000 H       1  UNL1        0.0310
     21 H           6.4861   -1.6125    0.0000 H       1  UNL1        0.0743
     22 H           6.4861    1.0779    0.0000 H       1  UNL1        0.0430
     23 H           3.3765   -1.7810    0.0000 H       1  UNL1        0.0350
     24 H           4.1748   -1.7718    0.0000 H       1  UNL1        0.0350
     25 H           3.2362    1.0825    0.0000 H       1  UNL1        0.0347
     26 H           5.5301    1.3527    0.0000 H       1  UNL1        0.0579
     27 H           4.0441   -1.7673    0.0000 H       1  UNL1        0.0238
     28 H           4.6641   -2.3873    0.0000 H       1  UNL1        0.0238
     29 H           5.2841   -1.7673    0.0000 H       1  UNL1        0.0238
     30 H           2.6550    0.8372    0.0000 H       1  UNL1        0.0347
     31 H           2.2532    0.1474    0.0000 H       1  UNL1        0.0347
     32 H           4.4017    1.7601    0.0000 H       1  UNL1        0.0236
     33 H           3.7889    2.3873    0.0000 H       1  UNL1        0.0236
     34 H           3.1618    1.7745    0.0000 H       1  UNL1        0.0236
     35 H           8.2597    1.6158    0.0000 H       1  UNL1        0.0540
     36 H           7.2390    1.9494    0.0000 H       1  UNL1        0.0540
@<TRIPOS>BOND
     1     1     7    1
     2     1    17    1
     3     2    14    2
     4     3    17    2
     5     4     5    1
     6     4     6    1
     7     4     9    1
     8     4    12    1
     9     5     7    1
    10     5    19    1
    11     5    20    1
    12     6    10    1
    13     6    11    2
    14     7     8    1
    15     7    21    1
    16     8    11    1
    17     8    15    1
    18     8    22    1
    19     9    14    1
    20     9    23    1
    21     9    24    1
    22    10    13    1
    23    10    16    1
    24    10    25    1
    25    11    26    1
    26    12    27    1
    27    12    28    1
    28    12    29    1
    29    13    14    1
    30    13    30    1
    31    13    31    1
    32    15    17    1
    33    15    18    2
    34    16    32    1
    35    16    33    1
    36    16    34    1
    37    18    35    1
    38    18    36    1
