@<TRIPOS>MOLECULE
IMPHY010233
 77 82 0 0 0
SMALL
GASTEIGER

@<TRIPOS>ATOM
      1 O           4.2536   -1.5407    0.0000 O.3     1  UNL1       -0.3815
      2 O           3.8124   -0.7026    0.0000 O.3     1  UNL1       -0.3851
      3 O           5.3299   -1.8714    0.0000 O.3     1  UNL1       -0.3765
      4 O           7.1526    1.8904    0.0000 O.3     1  UNL1       -0.3791
      5 O           3.4357    1.4645    0.0000 O.3     1  UNL1       -0.3790
      6 O           3.0349    2.3483    0.0000 O.3     1  UNL1       -0.3793
      7 O           8.0186   -2.3448    0.0000 O.3     1  UNL1       -0.3824
      8 N           8.3479    0.0613    0.0000 N.3     1  UNL1       -0.2955
      9 C           6.4012    0.4566    0.0000 C.3     1  UNL1        0.0244
     10 C           6.4012   -0.4110    0.0000 C.3     1  UNL1        0.0068
     11 C           7.4032    0.3505    0.0000 C.3     1  UNL1        0.0529
     12 C           5.7230    0.9975    0.0000 C.3     1  UNL1       -0.0228
     13 C           4.8771   -0.7589    0.0000 C.3     1  UNL1        0.1371
     14 C           4.8771    0.8044    0.0000 C.3     1  UNL1        0.0209
     15 C           4.5007    0.0228    0.0000 C.3     1  UNL1        0.1063
     16 C           5.7230   -0.9519    0.0000 C.3     1  UNL1        0.0952
     17 C           7.1526   -0.8448    0.0000 C.3     1  UNL1        0.0128
     18 C           7.1526    0.8904    0.0000 C.3     1  UNL1        0.0661
     19 C           5.8007    1.8616    0.0000 C.3     1  UNL1       -0.0416
     20 C           5.0030    2.2026    0.0000 C.3     1  UNL1        0.0123
     21 C           4.4321    1.5492    0.0000 C.3     1  UNL1        0.0693
     22 C           3.8558    0.2927    0.0000 C.3     1  UNL1        0.0059
     23 C           8.3479   -0.6906    0.0000 C.3     1  UNL1        0.0074
     24 C           7.9039   -0.4110    0.0000 C.3     1  UNL1       -0.0414
     25 C           3.8558    1.7772    0.0000 C.3     1  UNL1        0.0662
     26 C           7.9039    0.4566    0.0000 C.3     1  UNL1       -0.0254
     27 C           7.1526   -1.8448    0.0000 C.3     1  UNL1        0.0544
     28 C           9.1519    0.6560    0.0000 C.3     1  UNL1       -0.0035
     29 C           5.9297   -2.6716    0.0000 C.3     1  UNL1        0.0369
     30 C          10.0689    0.2571    0.0000 C.3     1  UNL1       -0.0523
     31 C           8.0186    2.3904    0.0000 C.3     1  UNL1        0.0368
     32 C           3.0108    0.5593    0.0000 C.3     1  UNL1        0.0368
     33 C           3.1191    3.3448    0.0000 C.3     1  UNL1        0.0368
     34 C           8.0186   -3.3448    0.0000 C.3     1  UNL1        0.0365
     35 H           6.4648   -1.2586    0.0000 H       1  UNL1        0.0340
     36 H           7.7152    1.1412    0.0000 H       1  UNL1        0.0499
     37 H           6.5045    1.3316    0.0000 H       1  UNL1        0.0312
     38 H           4.0280    0.7663    0.0000 H       1  UNL1        0.0358
     39 H           5.9233   -1.5386    0.0000 H       1  UNL1        0.0629
     40 H           6.6156    1.2004    0.0000 H       1  UNL1        0.0602
     41 H           5.9835    2.4540    0.0000 H       1  UNL1        0.0272
     42 H           6.4090    1.7418    0.0000 H       1  UNL1        0.0272
     43 H           5.0237    3.0523    0.0000 H       1  UNL1        0.0351
     44 H           4.1520    2.1023    0.0000 H       1  UNL1        0.0603
     45 H           3.6938   -0.3058    0.0000 H       1  UNL1        0.0319
     46 H           3.2412    0.3744    0.0000 H       1  UNL1        0.0319
     47 H           8.9674   -0.6640    0.0000 H       1  UNL1        0.0433
     48 H           8.4009   -1.3083    0.0000 H       1  UNL1        0.0433
     49 H           8.5145   -0.3033    0.0000 H       1  UNL1        0.0273
     50 H           8.1160   -0.9936    0.0000 H       1  UNL1        0.0273
     51 H           3.9340    2.3923    0.0000 H       1  UNL1        0.0600
     52 H           8.1160    1.0392    0.0000 H       1  UNL1        0.0290
     53 H           8.5145    0.3489    0.0000 H       1  UNL1        0.0290
     54 H           6.9405   -2.4274    0.0000 H       1  UNL1        0.0566
     55 H           6.5420   -1.7371    0.0000 H       1  UNL1        0.0566
     56 H           4.4801   -2.1178    0.0000 H       1  UNL1        0.2105
     57 H           3.2095   -0.5579    0.0000 H       1  UNL1        0.2103
     58 H           8.7022    1.0829    0.0000 H       1  UNL1        0.0424
     59 H           9.4942    1.1730    0.0000 H       1  UNL1        0.0424
     60 H           6.4258   -2.2997    0.0000 H       1  UNL1        0.0524
     61 H           6.3016   -3.1677    0.0000 H       1  UNL1        0.0524
     62 H           5.4337   -3.0435    0.0000 H       1  UNL1        0.0524
     63 H          10.3162    0.8256    0.0000 H       1  UNL1        0.0242
     64 H          10.6374    0.0098    0.0000 H       1  UNL1        0.0242
     65 H           9.8215   -0.3114    0.0000 H       1  UNL1        0.0242
     66 H           7.7086    2.9273    0.0000 H       1  UNL1        0.0524
     67 H           8.5556    2.7004    0.0000 H       1  UNL1        0.0524
     68 H           8.3286    1.8534    0.0000 H       1  UNL1        0.0524
     69 H           3.5721    0.2959    0.0000 H       1  UNL1        0.0524
     70 H           2.7474   -0.0020    0.0000 H       1  UNL1        0.0524
     71 H           2.4496    0.8227    0.0000 H       1  UNL1        0.0524
     72 H           2.5013    3.3970    0.0000 H       1  UNL1        0.0524
     73 H           3.1713    3.9626    0.0000 H       1  UNL1        0.0524
     74 H           3.7369    3.2926    0.0000 H       1  UNL1        0.0524
     75 H           8.6386   -3.3448    0.0000 H       1  UNL1        0.0523
     76 H           8.0186   -3.9648    0.0000 H       1  UNL1        0.0523
     77 H           7.3986   -3.3448    0.0000 H       1  UNL1        0.0523
@<TRIPOS>BOND
     1    13     1    1
     2     1    56    1
     3    15     2    1
     4     2    57    1
     5    16     3    1
     6     3    29    1
     7    18     4    1
     8     4    31    1
     9    21     5    1
    10     5    32    1
    11    25     6    1
    12     6    33    1
    13     7    27    1
    14     7    34    1
    15     8    11    1
    16     8    23    1
    17     8    28    1
    18     9    10    1
    19     9    11    1
    20     9    12    1
    21     9    18    1
    22    10    16    1
    23    10    17    1
    24    10    35    1
    25    11    13    1
    26    11    36    1
    27    12    14    1
    28    12    19    1
    29    12    37    1
    30    13    15    1
    31    13    16    1
    32    14    15    1
    33    14    21    1
    34    14    38    1
    35    15    22    1
    36    16    39    1
    37    17    23    1
    38    17    24    1
    39    17    27    1
    40    18    26    1
    41    18    40    1
    42    19    20    1
    43    19    41    1
    44    19    42    1
    45    20    21    1
    46    20    25    1
    47    20    43    1
    48    21    44    1
    49    22    25    1
    50    22    45    1
    51    22    46    1
    52    23    47    1
    53    23    48    1
    54    24    26    1
    55    24    49    1
    56    24    50    1
    57    25    51    1
    58    26    52    1
    59    26    53    1
    60    27    54    1
    61    27    55    1
    62    28    30    1
    63    28    58    1
    64    28    59    1
    65    29    60    1
    66    29    61    1
    67    29    62    1
    68    30    63    1
    69    30    64    1
    70    30    65    1
    71    31    66    1
    72    31    67    1
    73    31    68    1
    74    32    69    1
    75    32    70    1
    76    32    71    1
    77    33    72    1
    78    33    73    1
    79    33    74    1
    80    34    75    1
    81    34    76    1
    82    34    77    1
