@<TRIPOS>MOLECULE
IMPHY011462
 61 62 0 0 0
SMALL
GASTEIGER

@<TRIPOS>ATOM
      1 O          19.4007    0.3047    0.0000 O.3     1  UNL1       -0.4526
      2 O          19.4007   -1.3047    0.0000 O.3     1  UNL1       -0.4526
      3 O          12.3923    1.5000    0.0000 O.2     1  UNL1       -0.2708
      4 N          11.5263    0.0000    0.0000 N.am    1  UNL1       -0.3118
      5 C           3.7320    0.5000    0.0000 C.3     1  UNL1       -0.0504
      6 C           2.8660    0.0000    0.0000 C.3     1  UNL1       -0.0467
      7 C           4.5981    0.0000    0.0000 C.3     1  UNL1       -0.0494
      8 C           5.4641    0.5000    0.0000 C.3     1  UNL1       -0.0348
      9 C           2.0000    0.5000    0.0000 C.3     1  UNL1       -0.0627
     10 C           2.8660   -1.0000    0.0000 C.3     1  UNL1       -0.0627
     11 C           8.9282    0.5000    0.0000 C.3     1  UNL1       -0.0482
     12 C           8.0622    0.0000    0.0000 C.3     1  UNL1       -0.0347
     13 C           6.3301    0.0000    0.0000 C.2     1  UNL1       -0.0879
     14 C           9.7942    0.0000    0.0000 C.3     1  UNL1       -0.0371
     15 C           7.1962    0.5000    0.0000 C.2     1  UNL1       -0.0879
     16 C          10.6603    0.5000    0.0000 C.3     1  UNL1        0.0119
     17 C          12.3923    0.5000    0.0000 C.2     1  UNL1        0.2369
     18 C          18.4545    0.0000    0.0000 C.ar    1  UNL1        0.1668
     19 C          18.4545   -1.0000    0.0000 C.ar    1  UNL1        0.1663
     20 C          16.7224    0.0000    0.0000 C.ar    1  UNL1       -0.0213
     21 C          17.5885    0.5000    0.0000 C.ar    1  UNL1       -0.0090
     22 C          13.2583    0.0000    0.0000 C.2     1  UNL1        0.0001
     23 C          17.5885   -1.5000    0.0000 C.ar    1  UNL1       -0.0156
     24 C          16.7224   -1.0000    0.0000 C.ar    1  UNL1       -0.0509
     25 C          19.9843   -0.5000    0.0000 C.3     1  UNL1        0.2332
     26 C          15.8564    0.5000    0.0000 C.2     1  UNL1       -0.0545
     27 C          14.1244    0.5000    0.0000 C.2     1  UNL1       -0.0568
     28 C          14.9904    0.0000    0.0000 C.2     1  UNL1       -0.0610
     29 H           4.1306    0.9749    0.0000 H       1  UNL1        0.0268
     30 H           3.3335    0.9749    0.0000 H       1  UNL1        0.0268
     31 H           2.8660    0.6200    0.0000 H       1  UNL1        0.0295
     32 H           4.1996   -0.4749    0.0000 H       1  UNL1        0.0268
     33 H           4.9966   -0.4749    0.0000 H       1  UNL1        0.0268
     34 H           5.8626    0.9749    0.0000 H       1  UNL1        0.0307
     35 H           5.0656    0.9749    0.0000 H       1  UNL1        0.0307
     36 H           2.3100    1.0369    0.0000 H       1  UNL1        0.0232
     37 H           2.2460   -1.0000    0.0000 H       1  UNL1        0.0232
     38 H           2.8660   -1.6200    0.0000 H       1  UNL1        0.0232
     39 H           3.4860   -1.0000    0.0000 H       1  UNL1        0.0232
     40 H           1.4631    0.8100    0.0000 H       1  UNL1        0.0232
     41 H           1.6900   -0.0369    0.0000 H       1  UNL1        0.0232
     42 H           9.3267    0.9749    0.0000 H       1  UNL1        0.0269
     43 H           8.5297    0.9749    0.0000 H       1  UNL1        0.0269
     44 H           7.6636   -0.4749    0.0000 H       1  UNL1        0.0307
     45 H           8.4607   -0.4749    0.0000 H       1  UNL1        0.0307
     46 H           6.3301   -0.6200    0.0000 H       1  UNL1        0.0569
     47 H           9.3957   -0.4749    0.0000 H       1  UNL1        0.0280
     48 H          10.1928   -0.4749    0.0000 H       1  UNL1        0.0280
     49 H           7.1962    1.1200    0.0000 H       1  UNL1        0.0569
     50 H          11.0588    0.9749    0.0000 H       1  UNL1        0.0462
     51 H          10.2617    0.9749    0.0000 H       1  UNL1        0.0462
     52 H          11.5263   -0.6200    0.0000 H       1  UNL1        0.1490
     53 H          17.5885    1.1200    0.0000 H       1  UNL1        0.0661
     54 H          13.2583   -0.6200    0.0000 H       1  UNL1        0.0669
     55 H          17.5885   -2.1200    0.0000 H       1  UNL1        0.0655
     56 H          16.1855   -1.3100    0.0000 H       1  UNL1        0.0625
     57 H          20.4452   -0.9147    0.0000 H       1  UNL1        0.1166
     58 H          20.4452   -0.0853    0.0000 H       1  UNL1        0.1166
     59 H          15.8564    1.1200    0.0000 H       1  UNL1        0.0623
     60 H          14.1244    1.1200    0.0000 H       1  UNL1        0.0619
     61 H          14.9904   -0.6200    0.0000 H       1  UNL1        0.0618
@<TRIPOS>BOND
     1     1    18    1
     2     1    25    1
     3     2    19    1
     4     2    25    1
     5     3    17    2
     6     4    16    1
     7     4    17   am
     8     4    52    1
     9     5     6    1
    10     5     7    1
    11     5    29    1
    12     5    30    1
    13     6     9    1
    14     6    10    1
    15     6    31    1
    16     7     8    1
    17     7    32    1
    18     7    33    1
    19     8    13    1
    20     8    34    1
    21     8    35    1
    22     9    36    1
    23     9    40    1
    24     9    41    1
    25    10    37    1
    26    10    38    1
    27    10    39    1
    28    11    12    1
    29    11    14    1
    30    11    42    1
    31    11    43    1
    32    12    15    1
    33    12    44    1
    34    12    45    1
    35    13    15    2
    36    13    46    1
    37    14    16    1
    38    14    47    1
    39    14    48    1
    40    15    49    1
    41    16    50    1
    42    16    51    1
    43    17    22    1
    44    18    19   ar
    45    18    21   ar
    46    19    23   ar
    47    20    21   ar
    48    20    24   ar
    49    20    26    1
    50    21    53    1
    51    22    27    2
    52    22    54    1
    53    23    24   ar
    54    23    55    1
    55    24    56    1
    56    25    57    1
    57    25    58    1
    58    26    28    2
    59    26    59    1
    60    27    28    1
    61    27    60    1
    62    28    61    1
