@<TRIPOS>MOLECULE
IMPHY008249
 56 57 0 0 0
SMALL
GASTEIGER

@<TRIPOS>ATOM
      1 O           6.4103    0.6953    0.0000 O.3     1  UNL1       -0.4536
      2 O           4.5981   -0.5000    0.0000 O.3     1  UNL1       -0.4545
      3 O           2.9889    1.6691    0.0000 O.3     1  UNL1       -0.3851
      4 O           4.7320    2.0001    0.0000 O.2     1  UNL1       -0.2971
      5 O           7.9939    1.5000    0.0000 O.2     1  UNL1       -0.2453
      6 O           6.3301   -0.5000    0.0000 O.2     1  UNL1       -0.2505
      7 C           5.4641    1.0000    0.0000 C.3     1  UNL1        0.1501
      8 C           4.5981    0.5000    0.0000 C.3     1  UNL1        0.1684
      9 C           3.7320    1.0000    0.0000 C.3     1  UNL1        0.1035
     10 C           5.4641    2.0000    0.0000 C.3     1  UNL1        0.0377
     11 C           2.8660    0.5000    0.0000 C.3     1  UNL1       -0.0206
     12 C           4.5981    2.5000    0.0000 C.3     1  UNL1        0.0166
     13 C           2.0000    1.0000    0.0000 C.3     1  UNL1       -0.0497
     14 C           2.8660    2.5000    0.0000 C.3     1  UNL1        0.0147
     15 C           2.0000    2.0000    0.0000 C.3     1  UNL1       -0.0437
     16 C           6.4103    2.3047    0.0000 C.2     1  UNL1        0.0366
     17 C           4.6592    1.3746    0.0000 C.3     1  UNL1       -0.0325
     18 C           3.7320    2.0000    0.0000 C.2     1  UNL1        0.1369
     19 C           6.9939    1.5000    0.0000 C.2     1  UNL1        0.3354
     20 C           2.8660    3.5000    0.0000 C.3     1  UNL1       -0.0557
     21 C           5.4641   -1.0000    0.0000 C.2     1  UNL1        0.3104
     22 C           6.7210    3.2553    0.0000 C.2     1  UNL1       -0.0883
     23 C           5.4641   -2.0000    0.0000 C.3     1  UNL1        0.0534
     24 C           6.3301   -2.5000    0.0000 C.3     1  UNL1       -0.0432
     25 C           4.5981   -2.5000    0.0000 C.3     1  UNL1       -0.0523
     26 C           6.3301   -3.5000    0.0000 C.3     1  UNL1       -0.0645
     27 H           5.5540    0.1548    0.0000 H       1  UNL1        0.0779
     28 H           5.1350    0.1900    0.0000 H       1  UNL1        0.0801
     29 H           5.5540    2.8452    0.0000 H       1  UNL1        0.0392
     30 H           2.4675    0.0251    0.0000 H       1  UNL1        0.0294
     31 H           3.2646    0.0251    0.0000 H       1  UNL1        0.0294
     32 H           4.9966    2.9750    0.0000 H       1  UNL1        0.0349
     33 H           4.1996    2.9750    0.0000 H       1  UNL1        0.0349
     34 H           1.3894    1.1077    0.0000 H       1  UNL1        0.0266
     35 H           1.7880    0.4174    0.0000 H       1  UNL1        0.0266
     36 H           3.4030    2.8100    0.0000 H       1  UNL1        0.0375
     37 H           1.7880    2.5826    0.0000 H       1  UNL1        0.0272
     38 H           1.3894    1.8923    0.0000 H       1  UNL1        0.0272
     39 H           4.8915    0.7998    0.0000 H       1  UNL1        0.0258
     40 H           5.2341    1.6069    0.0000 H       1  UNL1        0.0258
     41 H           4.4270    1.9495    0.0000 H       1  UNL1        0.0258
     42 H           2.3992    1.4775    0.0000 H       1  UNL1        0.2103
     43 H           3.4860    3.5000    0.0000 H       1  UNL1        0.0236
     44 H           2.8660    4.1200    0.0000 H       1  UNL1        0.0236
     45 H           2.2460    3.5000    0.0000 H       1  UNL1        0.0236
     46 H           7.3277    3.3831    0.0000 H       1  UNL1        0.0540
     47 H           6.3069    3.7167    0.0000 H       1  UNL1        0.0540
     48 H           5.4641   -2.6200    0.0000 H       1  UNL1        0.0410
     49 H           6.9407   -2.6077    0.0000 H       1  UNL1        0.0270
     50 H           6.5422   -1.9174    0.0000 H       1  UNL1        0.0270
     51 H           4.2881   -1.9631    0.0000 H       1  UNL1        0.0238
     52 H           4.0611   -2.8100    0.0000 H       1  UNL1        0.0238
     53 H           4.9081   -3.0369    0.0000 H       1  UNL1        0.0238
     54 H           5.7101   -3.5000    0.0000 H       1  UNL1        0.0230
     55 H           6.3301   -4.1200    0.0000 H       1  UNL1        0.0230
     56 H           6.9501   -3.5000    0.0000 H       1  UNL1        0.0230
@<TRIPOS>BOND
     1     1     7    1
     2     1    19    1
     3     8     2    1
     4     2    21    1
     5     9     3    1
     6     3    42    1
     7     4    18    2
     8     5    19    2
     9     6    21    2
    10     7     8    1
    11     7    10    1
    12     7    27    1
    13     8     9    1
    14     8    28    1
    15     9    11    1
    16     9    17    1
    17    10    12    1
    18    10    16    1
    19    10    29    1
    20    11    13    1
    21    11    30    1
    22    11    31    1
    23    12    18    1
    24    12    32    1
    25    12    33    1
    26    13    15    1
    27    13    34    1
    28    13    35    1
    29    14    15    1
    30    14    18    1
    31    14    20    1
    32    14    36    1
    33    15    37    1
    34    15    38    1
    35    16    19    1
    36    16    22    2
    37    17    39    1
    38    17    40    1
    39    17    41    1
    40    20    43    1
    41    20    44    1
    42    20    45    1
    43    21    23    1
    44    22    46    1
    45    22    47    1
    46    23    24    1
    47    23    25    1
    48    23    48    1
    49    24    26    1
    50    24    49    1
    51    24    50    1
    52    25    51    1
    53    25    52    1
    54    25    53    1
    55    26    54    1
    56    26    55    1
    57    26    56    1
