@<TRIPOS>MOLECULE
IMPHY001854
 16 15 0 0 0
SMALL
GASTEIGER

@<TRIPOS>ATOM
      1 O           5.4641    0.7500    0.0000 O.2     1  UNL1       -0.3010
      2 C           2.8660    0.2500    0.0000 C.3     1  UNL1       -0.0403
      3 C           3.7320    0.7500    0.0000 C.3     1  UNL1        0.0051
      4 C           2.0000    0.7500    0.0000 C.3     1  UNL1       -0.0623
      5 C           2.8660   -0.7500    0.0000 C.3     1  UNL1       -0.0623
      6 C           4.5981    0.2500    0.0000 C.2     1  UNL1        0.1206
      7 H           2.8660    0.8700    0.0000 H       1  UNL1        0.0299
      8 H           4.1306    1.2250    0.0000 H       1  UNL1        0.0341
      9 H           3.3335    1.2250    0.0000 H       1  UNL1        0.0341
     10 H           2.3100    1.2869    0.0000 H       1  UNL1        0.0232
     11 H           1.4631    1.0600    0.0000 H       1  UNL1        0.0232
     12 H           1.6900    0.2131    0.0000 H       1  UNL1        0.0232
     13 H           2.2460   -0.7500    0.0000 H       1  UNL1        0.0232
     14 H           2.8660   -1.3700    0.0000 H       1  UNL1        0.0232
     15 H           3.4860   -0.7500    0.0000 H       1  UNL1        0.0232
     16 H           4.5981   -0.3700    0.0000 H       1  UNL1        0.1026
@<TRIPOS>BOND
     1     1     6    2
     2     2     3    1
     3     2     4    1
     4     2     5    1
     5     2     7    1
     6     3     6    1
     7     3     8    1
     8     3     9    1
     9     4    10    1
    10     4    11    1
    11     4    12    1
    12     5    13    1
    13     5    14    1
    14     5    15    1
    15     6    16    1
