@<TRIPOS>MOLECULE
IMPHY017625
 41 40 0 0 0
SMALL
GASTEIGER

@<TRIPOS>ATOM
      1 O           3.7320   -0.2500    0.0000 O.3     1  UNL1       -0.4639
      2 O           6.3301    0.2500    0.0000 O.3     1  UNL1       -0.3875
      3 O           4.5981   -1.7500    0.0000 O.2     1  UNL1       -0.2506
      4 C           4.5981    1.2500    0.0000 C.3     1  UNL1        0.0165
      5 C           5.4641    1.7500    0.0000 C.3     1  UNL1       -0.0134
      6 C           6.3301    1.2500    0.0000 C.3     1  UNL1        0.0764
      7 C           4.5981    0.2500    0.0000 C.3     1  UNL1        0.0990
      8 C           3.7320    1.7500    0.0000 C.2     1  UNL1       -0.0733
      9 C           7.1962    1.7500    0.0000 C.2     1  UNL1       -0.0516
     10 C           2.8660    1.2500    0.0000 C.3     1  UNL1       -0.0437
     11 C           2.8660   -1.7500    0.0000 C.3     1  UNL1        0.0508
     12 C           3.7320    2.7500    0.0000 C.2     1  UNL1       -0.0993
     13 C           3.7320   -1.2500    0.0000 C.2     1  UNL1        0.3097
     14 C           8.0622    1.2500    0.0000 C.3     1  UNL1       -0.0416
     15 C           7.1962    2.7500    0.0000 C.2     1  UNL1       -0.0973
     16 C           2.8660   -2.7500    0.0000 C.3     1  UNL1       -0.0525
     17 C           2.0000   -1.2500    0.0000 C.3     1  UNL1       -0.0525
     18 H           4.5981    1.8700    0.0000 H       1  UNL1        0.0379
     19 H           5.8626    2.2250    0.0000 H       1  UNL1        0.0300
     20 H           5.0656    2.2250    0.0000 H       1  UNL1        0.0300
     21 H           6.8671    0.9400    0.0000 H       1  UNL1        0.0640
     22 H           4.8101   -0.3326    0.0000 H       1  UNL1        0.0703
     23 H           5.2087    0.3577    0.0000 H       1  UNL1        0.0703
     24 H           2.5560    1.7869    0.0000 H       1  UNL1        0.0274
     25 H           2.3291    0.9400    0.0000 H       1  UNL1        0.0274
     26 H           3.1760    0.7131    0.0000 H       1  UNL1        0.0274
     27 H           2.8660   -1.1300    0.0000 H       1  UNL1        0.0408
     28 H           4.2690    3.0600    0.0000 H       1  UNL1        0.0534
     29 H           3.1951    3.0600    0.0000 H       1  UNL1        0.0534
     30 H           6.8671   -0.0600    0.0000 H       1  UNL1        0.2102
     31 H           7.7522    0.7131    0.0000 H       1  UNL1        0.0275
     32 H           8.5991    0.9400    0.0000 H       1  UNL1        0.0275
     33 H           8.3722    1.7869    0.0000 H       1  UNL1        0.0275
     34 H           7.7331    3.0600    0.0000 H       1  UNL1        0.0535
     35 H           6.6592    3.0600    0.0000 H       1  UNL1        0.0535
     36 H           2.2460   -2.7500    0.0000 H       1  UNL1        0.0237
     37 H           2.8660   -3.3700    0.0000 H       1  UNL1        0.0237
     38 H           3.4860   -2.7500    0.0000 H       1  UNL1        0.0237
     39 H           2.3100   -0.7131    0.0000 H       1  UNL1        0.0237
     40 H           1.4631   -0.9400    0.0000 H       1  UNL1        0.0237
     41 H           1.6900   -1.7869    0.0000 H       1  UNL1        0.0237
@<TRIPOS>BOND
     1     1     7    1
     2     1    13    1
     3     2     6    1
     4     2    30    1
     5     3    13    2
     6     4     5    1
     7     4     7    1
     8     4     8    1
     9     4    18    1
    10     5     6    1
    11     5    19    1
    12     5    20    1
    13     6     9    1
    14     6    21    1
    15     7    22    1
    16     7    23    1
    17     8    10    1
    18     8    12    2
    19     9    14    1
    20     9    15    2
    21    10    24    1
    22    10    25    1
    23    10    26    1
    24    11    13    1
    25    11    16    1
    26    11    17    1
    27    11    27    1
    28    12    28    1
    29    12    29    1
    30    14    31    1
    31    14    32    1
    32    14    33    1
    33    15    34    1
    34    15    35    1
    35    16    36    1
    36    16    37    1
    37    16    38    1
    38    17    39    1
    39    17    40    1
    40    17    41    1
